19
Iteration:   909
 C         0.074075        -0.473976        -0.683144
 C         1.540218        -0.156769        -0.172206
 C         2.497490         0.740478        -1.161442
 C         3.513478         1.048308        -0.069305
 C         2.907400         0.975332         1.224158
 O         1.446683         0.778594         0.955409
 C         3.591374        -0.309022         0.831498
 O         4.673595        -0.758260         1.606093
 C         2.451836        -1.283621         0.422543
 H        -0.371041        -1.423301        -0.282120
 H        -0.457458         0.431483        -0.396301
 H         0.139930        -0.508913        -1.902283
 H         2.981978         0.250879        -1.968256
 H         1.996326         1.743272        -1.416279
 H         4.410076         1.777547        -0.093949
 H         2.948868         1.497417         2.142484
 H         4.289239        -1.560081         2.093798
 H         2.802973        -2.163339        -0.270592
 H         1.969356        -1.611076         1.328811
