19
Iteration:  4516charge 0 multiplicity 1
 C         0.322433        -0.498839        -0.984981
 C         1.554124        -0.056371        -0.159930
 C         2.449109         0.878304        -0.999400
 C         3.590166         0.967977        -0.010321
 C         2.773328         0.949586         1.347859
 O         1.275964         0.641647         1.040731
 C         3.526726        -0.250841         0.903181
 O         4.670198        -0.914742         1.424625
 C         2.468333        -1.131035         0.461996
 H         0.496311        -0.182318        -2.014686
 H         0.397299        -1.605983        -1.022968
 H        -0.558420        -0.128534        -0.522249
 H         2.841871         0.541016        -1.879538
 H         2.060959         1.890751        -1.261084
 H         4.522738         1.681306        -0.086686
 H         3.038519         1.514231         2.284259
 H         4.553273        -0.775631         2.419010
 H         2.756469        -1.835297        -0.377915
 H         2.073929        -1.797874         1.241657
