19
Iteration:  3932
 C         0.191185        -0.385769        -0.878486
 C         1.527057        -0.172420        -0.169745
 C         2.563097         0.926547        -0.978917
 C         3.442758         1.031117         0.228842
 C         2.657604         0.774670         1.461331
 O         1.333898         0.612412         0.995644
 C         3.565608        -0.356087         0.865054
 O         4.780983        -0.673946         1.405485
 C         2.547865        -1.185785         0.159249
 H        -0.396604         0.593397        -0.889807
 H         0.588763        -0.715459        -1.918094
 H        -0.320295        -1.234955        -0.525923
 H         2.965000         0.435099        -1.987187
 H         1.990209         1.734538        -1.311741
 H         4.375543         1.612774         0.339680
 H         2.909377         1.307610         2.393934
 H         4.618240        -1.354514         2.086492
 H         2.856111        -1.776254        -0.690987
 H         2.171150        -1.959661         0.766642
