19
Iteration:  2249
 C         0.221673        -0.484426        -0.929427
 C         1.587156        -0.085302        -0.255416
 C         2.520093         0.842551        -1.004124
 C         3.498796         1.018793         0.089245
 C         2.759154         0.863752         1.396915
 O         1.387430         0.582211         1.050242
 C         3.493854        -0.237155         0.938676
 O         4.722251        -0.704230         1.462068
 C         2.461510        -1.146227         0.333301
 H         0.060312        -0.204363        -1.999099
 H         0.225500        -1.538496        -0.957973
 H        -0.605596        -0.233918        -0.369024
 H         2.979689         0.312794        -1.808815
 H         2.090489         1.810484        -1.575763
 H         4.377134         1.688894         0.087050
 H         2.937071         1.340470         2.332887
 H         4.542744        -1.649268         1.320698
 H         2.769837        -1.987204        -0.359108
 H         1.902056        -1.601550         1.235350
