19
Iteration:   217
 C         0.094947        -0.393059        -0.750222
 C         1.490824        -0.156155        -0.134041
 C         2.509215         0.698675        -1.030893
 C         3.601510         0.896132        -0.005419
 C         2.832943         0.971285         1.245012
 O         1.471729         0.771030         0.898649
 C         3.508311        -0.338078         0.835281
 O         4.699576        -0.638381         1.522095
 C         2.433621        -1.309187         0.416314
 H        -0.567458        -1.086598        -0.157047
 H        -0.393948         0.637984        -0.812113
 H         0.193926        -0.911470        -1.779772
 H         2.918818         0.185083        -1.982263
 H         2.073956         1.666475        -1.211015
 H         4.551703         1.358879        -0.193720
 H         2.967245         1.698608         2.049256
 H         4.519472        -0.876467         2.486205
 H         2.808884        -1.990527        -0.382716
 H         2.072889        -1.991848         1.261072
