19
Iteration:  3309
 C         0.210571        -0.541940        -0.814495
 C         1.531644        -0.080256        -0.253868
 C         2.509607         0.969727        -1.064748
 C         3.556345         1.005253         0.141741
 C         2.734397         0.921369         1.394127
 O         1.357451         0.664439         0.947913
 C         3.505549        -0.297049         0.986691
 O         4.706389        -0.848892         1.557874
 C         2.538267        -1.167596         0.202306
 H        -0.673675        -0.114514        -0.451343
 H         0.209905        -0.494843        -2.010267
 H         0.205110        -1.633133        -0.656122
 H         2.873396         0.518838        -1.992494
 H         2.127781         1.974730        -1.198568
 H         4.361320         1.867932         0.032612
 H         2.603376         1.641297         2.200806
 H         4.563850        -1.823874         1.824031
 H         3.088258        -1.426273        -0.719042
 H         2.121538        -2.028382         0.710998
