19
Iteration:  1266charge 0 multiplicity 1
 C         0.236084        -0.489973        -0.702149
 C         1.521945        -0.068608        -0.187964
 C         2.542892         0.656406        -1.049486
 C         3.590012         0.904450        -0.074341
 C         2.749431         0.943193         1.374398
 O         1.395979         0.824258         1.066288
 C         3.526021        -0.223605         0.902627
 O         4.579872        -0.770803         1.473492
 C         2.439026        -1.186099         0.306866
 H        -0.377521        -1.134359        -0.085286
 H        -0.313952         0.373484        -0.965248
 H         0.349481        -1.147170        -1.666286
 H         2.888607        -0.146957        -1.839731
 H         2.121773         1.499755        -1.509215
 H         4.455956         1.591999        -0.365625
 H         3.012238         1.338936         2.325001
 H         5.427793        -0.693872         1.011444
 H         2.888623        -1.807367        -0.525400
 H         2.197782        -1.907100         1.081194
