19
Iteration:  3089
 C         0.145319        -0.268446        -0.878311
 C         1.593749        -0.191648        -0.263345
 C         2.497667         0.778595        -0.942021
 C         3.542262         0.993071         0.132755
 C         2.724105         0.915074         1.371138
 O         1.359595         0.640935         0.946103
 C         3.484207        -0.293046         0.899910
 O         4.707621        -0.644453         1.571704
 C         2.613798        -1.375751         0.183450
 H        -0.568652         0.482018        -0.392177
 H         0.244545        -0.224150        -1.961679
 H        -0.320150        -1.319497        -0.605051
 H         2.863910         0.337339        -1.995125
 H         1.832319         1.658200        -1.158888
 H         4.535589         1.499515        -0.081831
 H         2.696292         1.377043         2.383439
 H         4.526592        -1.263137         2.305592
 H         3.124891        -1.754906        -0.663193
 H         2.316446        -2.183900         0.769473
