19
Iteration:  1402
 C         0.210216        -0.499439        -0.769103
 C         1.563376        -0.110545        -0.172018
 C         2.456880         0.750228        -1.021846
 C         3.485010         0.866436         0.013491
 C         2.793197         1.013381         1.340030
 O         1.436560         0.848964         0.962124
 C         3.502520        -0.320894         0.898224
 O         4.760867        -0.733313         1.407959
 C         2.435381        -1.255723         0.372393
 H        -0.502414        -0.582857         0.131993
 H        -0.152471         0.316358        -1.522655
 H         0.230172        -1.474422        -1.175628
 H         2.830533         0.244790        -1.872727
 H         1.927020         1.695923        -1.245182
 H         4.388378         1.411014        -0.241009
 H         2.866642         1.613288         2.224220
 H         4.653792        -1.444470         2.034534
 H         2.939003        -1.838627        -0.404800
 H         1.845589        -1.860836         1.138780
