19
Iteration:  4236charge 0 multiplicity 1
 C         0.334247        -0.554619        -0.929030
 C         1.562660        -0.057162        -0.204388
 C         2.521655         0.954831        -0.903484
 C         3.454567         1.075666         0.263303
 C         2.657202         0.851044         1.508031
 O         1.286003         0.662018         1.041231
 C         3.531903        -0.291563         0.831642
 O         4.748123        -0.848278         1.312902
 C         2.552196        -1.181266         0.144267
 H        -0.617093        -0.405060        -0.285100
 H         0.078029        -0.130784        -2.004091
 H         0.334115        -1.615278        -1.177089
 H         3.075128         0.734830        -1.830610
 H         1.977975         1.853547        -1.121261
 H         4.244094         1.698541         0.251010
 H         2.811291         1.556016         2.335803
 H         4.685614        -1.180190         2.184862
 H         2.863187        -1.966021        -0.600364
 H         2.165925        -1.885271         0.981623
