19
Iteration:  3645charge 0 multiplicity 1
 C         0.224623        -0.357718        -0.886542
 C         1.548137        -0.121855        -0.285210
 C         2.560507         0.851769        -0.999150
 C         3.516733         0.968075         0.158330
 C         2.678849         0.831647         1.405788
 O         1.337146         0.546380         1.055520
 C         3.559746        -0.317942         0.946853
 O         4.738413        -0.646972         1.478327
 C         2.538669        -1.184043         0.171369
 H        -0.140771         0.387426        -1.574954
 H        -0.104416        -1.356884        -1.372708
 H        -0.605765        -0.289490        -0.086859
 H         2.932495         0.202332        -1.917814
 H         2.205509         1.768441        -1.336999
 H         4.113469         1.771690         0.206215
 H         2.744887         1.368837         2.407061
 H         4.872384        -1.493714         2.017272
 H         2.868472        -1.636515        -0.755954
 H         1.921385        -1.908327         0.667016
