19
Iteration:  2521charge 0 multiplicity 1
 C         0.312469        -0.467697        -0.941497
 C         1.597692        -0.124551        -0.218390
 C         2.499276         0.861678        -1.001075
 C         3.426585         1.082009         0.110892
 C         2.727708         0.904275         1.438237
 O         1.387997         0.645572         1.069608
 C         3.456838        -0.301041         0.893672
 O         4.699314        -0.783530         1.466942
 C         2.535050        -1.253892         0.207341
 H        -0.099812         0.319137        -1.715435
 H         0.223868        -1.424106        -1.386907
 H        -0.422580        -0.620718        -0.184379
 H         3.024707         0.387131        -1.826426
 H         1.911725         1.707502        -1.323974
 H         4.309423         1.585970         0.069921
 H         2.748741         1.468868         2.365456
 H         4.878209        -0.708402         2.452700
 H         2.903942        -1.740897        -0.676122
 H         1.996630        -1.935158         0.699745
