19
Iteration:  4046charge 0 multiplicity 1
 C         0.133896        -0.338385        -0.825245
 C         1.587881        -0.118164        -0.238207
 C         2.523589         1.001483        -1.019587
 C         3.463509         1.045341         0.222491
 C         2.701213         0.719049         1.422167
 O         1.328123         0.527745         0.993568
 C         3.577446        -0.300219         0.778634
 O         4.732516        -0.687657         1.554580
 C         2.634586        -1.277016         0.048125
 H        -0.374094         0.583003        -0.480118
 H        -0.047557        -0.700118        -1.840891
 H        -0.294669        -1.194761        -0.103936
 H         2.974942         0.533027        -1.814352
 H         2.076663         2.018190        -1.313286
 H         4.314246         1.585601         0.296436
 H         2.744752         1.102318         2.473841
 H         4.395045        -1.013944         2.460468
 H         3.052167        -1.745973        -0.869533
 H         2.264289        -2.152588         0.683032
