19
Iteration:  3691
 C         0.344548        -0.530224        -0.995548
 C         1.561025        -0.060553        -0.252441
 C         2.499232         0.929867        -0.955424
 C         3.504149         1.038463         0.134963
 C         2.671885         0.836637         1.411743
 O         1.349264         0.657772         1.161963
 C         3.550434        -0.247800         0.906957
 O         4.741652        -0.862154         1.366372
 C         2.435772        -1.171028         0.241370
 H        -0.217920         0.178696        -1.665028
 H         0.608616        -1.432839        -1.701279
 H        -0.561925        -0.870818        -0.431861
 H         2.886535         0.512389        -1.972476
 H         1.832895         1.837421        -1.041601
 H         4.468937         1.724757         0.251386
 H         2.891417         1.466278         2.240887
 H         4.617431        -0.815326         2.381762
 H         2.851149        -1.887059        -0.522478
 H         1.904329        -1.746831         1.036576
