19
Iteration:  3258charge 0 multiplicity 1
 C         0.225894        -0.388572        -0.964970
 C         1.536366        -0.080223        -0.242097
 C         2.526777         0.853964        -1.026975
 C         3.495634         1.011721         0.146163
 C         2.724245         0.870134         1.424089
 O         1.346009         0.557658         1.087254
 C         3.506430        -0.321197         0.883489
 O         4.784922        -0.745492         1.504807
 C         2.506757        -1.189774         0.216811
 H        -0.528201         0.415049        -1.151390
 H         0.557416        -0.635064        -1.995930
 H        -0.270465        -1.238619        -0.577074
 H         2.708748         0.141224        -1.782756
 H         1.989719         1.815621        -1.512003
 H         4.585702         1.453597         0.092335
 H         2.630024         1.398023         2.392330
 H         4.806017        -0.655561         2.478976
 H         2.886118        -1.816219        -0.606922
 H         1.816763        -1.705632         0.883484
