19
Iteration:    33charge 0 multiplicity 1
 C         0.177833        -0.715857        -0.669629
 C         1.473892        -0.030031        -0.127138
 C         2.541881         0.789917        -1.119573
 C         3.597704         0.955358        -0.058512
 C         2.826425         1.035969         1.320425
 O         1.453186         0.944540         0.931017
 C         3.515899        -0.306634         0.896215
 O         4.667772        -0.852705         1.479182
 C         2.384499        -1.161250         0.419741
 H        -0.031689        -1.700959        -0.235624
 H        -0.730873        -0.127417        -0.717732
 H         0.436554        -0.949651        -1.704086
 H         2.955033         0.200268        -1.991337
 H         2.155405         1.754295        -1.453149
 H         4.571464         1.289191        -0.201549
 H         3.015180         1.838037         2.040686
 H         4.355492        -1.665897         1.926080
 H         2.671558        -1.801121        -0.407289
 H         1.989338        -1.856461         1.170489
