19
Iteration:  2068
 C         0.206713        -0.515563        -0.751812
 C         1.561538        -0.066796        -0.227027
 C         2.452775         0.895488        -1.051793
 C         3.595961         0.961914         0.024805
 C         2.675622         0.925865         1.366277
 O         1.299834         0.630507         1.031670
 C         3.509331        -0.232481         0.928268
 O         4.721796        -0.820556         1.510351
 C         2.589461        -1.124686         0.208444
 H         0.129836        -1.610597        -0.703588
 H        -0.507048        -0.160305        -0.055635
 H        -0.037540        -0.121495        -1.773723
 H         2.992986         0.347629        -1.948383
 H         2.129435         1.868144        -1.258878
 H         4.501604         1.546422        -0.052358
 H         2.879012         1.492508         2.297660
 H         4.574557        -1.744275         1.435608
 H         3.141144        -1.582619        -0.587610
 H         2.287078        -1.872749         0.939533
