19
Iteration:   342
 C         0.222752        -0.456791        -0.663080
 C         1.537232        -0.100235        -0.108322
 C         2.452360         0.651211        -1.133532
 C         3.527804         1.030947        -0.066603
 C         2.812896         0.954267         1.287179
 O         1.445269         0.830290         0.910445
 C         3.559935        -0.215277         0.878119
 O         4.632349        -0.866794         1.496418
 C         2.492789        -1.214754         0.409715
 H        -0.627742        -0.446280         0.055623
 H         0.075836         0.218458        -1.485975
 H         0.377292        -1.418640        -1.158473
 H         2.760316         0.059064        -1.937415
 H         1.862874         1.511329        -1.659540
 H         4.411387         1.484503        -0.243196
 H         2.916600         1.468307         2.283755
 H         4.206225        -1.201735         2.351996
 H         2.864016        -1.937069        -0.318307
 H         2.184340        -1.696365         1.282735
