19
Iteration:  1418charge 0 multiplicity 1
 C         0.165436        -0.547892        -0.730779
 C         1.442947        -0.026112        -0.124555
 C         2.521819         0.707238        -1.120695
 C         3.635592         1.022515        -0.001653
 C         2.765296         0.890390         1.336189
 O         1.350608         0.806639         1.039444
 C         3.569891        -0.275411         0.888002
 O         4.736922        -0.815646         1.395909
 C         2.452332        -1.139063         0.362590
 H        -0.685307        -0.565025        -0.089904
 H        -0.104881        -0.106989        -1.620671
 H         0.452201        -1.616356        -1.136217
 H         2.845772        -0.071692        -1.931718
 H         2.148890         1.609539        -1.666123
 H         4.572464         1.611994         0.012313
 H         3.171708         1.497014         2.179586
 H         4.476521        -1.135239         2.237414
 H         2.618964        -1.771982        -0.541415
 H         2.002491        -1.635241         1.208673
