19
Iteration:  1798
 C         0.152560        -0.493886        -0.788242
 C         1.518116        -0.102854        -0.171059
 C         2.512921         0.812645        -1.117274
 C         3.546109         1.083753        -0.014643
 C         2.789639         0.971173         1.289877
 O         1.398588         0.665466         1.072541
 C         3.584326        -0.294150         0.821789
 O         4.643371        -0.879101         1.614967
 C         2.475506        -1.183722         0.334766
 H         0.099160        -1.504810        -0.475206
 H        -0.670787         0.169787        -0.535971
 H         0.190084        -0.654067        -1.943164
 H         2.777192         0.345745        -1.997956
 H         1.941053         1.764846        -1.420659
 H         4.335660         1.885546        -0.109641
 H         2.993565         1.477083         2.228277
 H         5.448112        -0.803647         1.103876
 H         2.746174        -1.947479        -0.438230
 H         2.053793        -1.590814         1.263398
