19
Iteration:  2117charge 0 multiplicity 1
 C         0.264757        -0.498062        -0.893891
 C         1.517188        -0.031447        -0.188772
 C         2.476367         0.820757        -1.045390
 C         3.566983         0.966693         0.080475
 C         2.697520         0.876726         1.436894
 O         1.326567         0.655602         1.091039
 C         3.538953        -0.320911         0.873767
 O         4.744995        -0.831411         1.420914
 C         2.469552        -1.145395         0.269013
 H         0.322495        -1.585741        -1.123267
 H        -0.667770        -0.325539        -0.304391
 H         0.208060        -0.030568        -1.839882
 H         2.735512         0.325203        -1.927520
 H         2.054931         1.909306        -1.027092
 H         4.439878         1.578123        -0.047683
 H         2.733046         1.541723         2.315874
 H         5.237865         0.015526         1.744532
 H         2.953120        -1.734414        -0.576373
 H         1.997224        -1.667130         1.139435
