19
Iteration:  2949
 C         0.152089        -0.317031        -0.864233
 C         1.561388        -0.126125        -0.257657
 C         2.536498         0.791313        -1.074683
 C         3.518347         0.932840         0.154917
 C         2.674501         0.841660         1.393488
 O         1.336581         0.603089         1.003998
 C         3.565633        -0.336713         0.965539
 O         4.766481        -0.625152         1.582210
 C         2.515099        -1.258127         0.140473
 H         0.014290         0.453186        -1.538692
 H         0.166399        -1.311908        -1.271214
 H        -0.562137        -0.071251        -0.009867
 H         2.758965         0.355853        -1.978657
 H         1.942089         1.713152        -1.296759
 H         4.414231         1.737551        -0.048441
 H         2.838427         1.558747         2.157252
 H         4.634961        -1.238662         2.262713
 H         3.164370        -1.640574        -0.770112
 H         2.235310        -2.295337         0.553504
