19
Iteration:   375charge 0 multiplicity 1
 C         0.011110        -0.289153        -0.759045
 C         1.474705        -0.125136        -0.209239
 C         2.579904         0.650900        -1.100375
 C         3.619427         0.791571        -0.017649
 C         2.764585         1.015712         1.234542
 O         1.448740         0.670217         1.017698
 C         3.569271        -0.320475         0.978144
 O         4.814098        -0.570610         1.507847
 C         2.350702        -1.340181         0.315125
 H        -0.897539        -0.066348        -0.136946
 H        -0.182828         0.321636        -1.590795
 H        -0.123387        -1.360684        -1.044842
 H         2.899018         0.114516        -1.943978
 H         2.193407         1.746081        -1.274609
 H         4.546169         1.207185         0.001215
 H         3.044241         1.745637         1.992225
 H         4.682834        -0.758930         2.468854
 H         2.802626        -2.063601        -0.379144
 H         1.939493        -1.833240         1.125426
