19
Iteration:  3940
 C         0.249042        -0.438359        -0.902910
 C         1.532722        -0.097701        -0.217232
 C         2.565636         0.872034        -0.974103
 C         3.510906         1.013584         0.248622
 C         2.671916         0.806283         1.496367
 O         1.283571         0.623862         1.029784
 C         3.539808        -0.332638         0.904555
 O         4.802879        -0.700019         1.335644
 C         2.485212        -1.190071         0.188752
 H        -0.504453         0.363301        -0.997165
 H         0.376443        -0.435525        -1.984936
 H        -0.305431        -1.349955        -0.663177
 H         2.958754         0.311655        -1.921542
 H         1.935522         1.778249        -1.304954
 H         4.285292         1.664426         0.306088
 H         2.859420         1.353764         2.481919
 H         4.831352        -1.230333         2.178007
 H         2.976335        -1.566992        -0.750354
 H         2.079771        -2.024102         0.809913
