19
Iteration:   504
 C         0.130940        -0.306288        -0.729654
 C         1.521893        -0.127379        -0.187945
 C         2.548111         0.653503        -1.194356
 C         3.556795         0.791847        -0.092967
 C         2.789547         0.942611         1.170839
 O         1.369025         0.740354         1.015737
 C         3.518493        -0.308884         0.975683
 O         4.766269        -0.638286         1.561544
 C         2.473381        -1.259920         0.454374
 H        -0.354532        -1.230056        -0.335888
 H        -0.560031         0.564650        -0.431871
 H        -0.015324        -0.209970        -1.782420
 H         2.811083         0.088797        -2.046130
 H         2.018012         1.609037        -1.523452
 H         4.533360         1.407915        -0.210200
 H         3.002847         1.643008         1.936036
 H         4.711665        -0.961388         2.500726
 H         2.835495        -1.985758        -0.327606
 H         1.926774        -1.939886         1.159514
