19
Iteration:  1892
 C         0.196456        -0.325699        -0.731851
 C         1.563232        -0.074054        -0.163008
 C         2.488585         0.774736        -1.026820
 C         3.430257         1.029976         0.001331
 C         2.727037         0.826365         1.330239
 O         1.387925         0.581231         1.092813
 C         3.580579        -0.281645         0.841784
 O         4.657293        -0.778997         1.577594
 C         2.554172        -1.244442         0.073235
 H        -0.509191        -0.233745         0.099460
 H         0.030300         0.350229        -1.509808
 H         0.084217        -1.319743        -1.034691
 H         3.003848         0.228428        -1.921676
 H         1.952028         1.548346        -1.468760
 H         4.420489         1.612836        -0.042658
 H         3.002600         1.395029         2.205649
 H         5.202664         0.006482         1.924280
 H         2.914088        -1.729446        -0.813941
 H         2.224297        -1.922818         0.869432
