19
Iteration:  1956
 C         0.345937        -0.554352        -0.774580
 C         1.542848        -0.024410        -0.162223
 C         2.514900         0.879200        -0.981409
 C         3.538590         1.068000         0.086097
 C         2.677508         0.836229         1.419948
 O         1.322328         0.688386         1.033693
 C         3.497419        -0.304546         0.789048
 O         4.738518        -0.755134         1.384175
 C         2.486948        -1.197773         0.263780
 H        -0.373426        -0.873095         0.085968
 H        -0.178818         0.225128        -1.363104
 H         0.493642        -1.419710        -1.341605
 H         2.995635         0.278501        -1.884725
 H         2.036558         1.768707        -1.379425
 H         4.471488         1.720423         0.170330
 H         2.901643         1.357513         2.324804
 H         4.382447        -1.706343         1.479934
 H         2.682123        -1.800864        -0.622263
 H         1.905346        -1.659934         1.083501
