19
Iteration:  1435charge 0 multiplicity 1
 C         0.174047        -0.609370        -0.698943
 C         1.509135        -0.015171        -0.210585
 C         2.612667         0.730461        -1.099167
 C         3.529451         1.033104         0.001091
 C         2.789060         1.023616         1.294669
 O         1.388339         0.734478         1.145595
 C         3.592974        -0.268207         0.769566
 O         4.665467        -0.893076         1.452693
 C         2.408473        -1.129314         0.297451
 H        -0.687755        -0.329083         0.048101
 H        -0.279953         0.001086        -1.593898
 H         0.177912        -1.629099        -1.008960
 H         3.062370         0.011313        -1.780985
 H         2.286949         1.645389        -1.701145
 H         4.376091         1.791879        -0.246129
 H         2.953436         1.603365         2.170859
 H         4.525723        -0.758838         2.380981
 H         2.749307        -1.937653        -0.345667
 H         2.125401        -1.798047         1.181273
