19
Iteration:  1030charge 0 multiplicity 1
 C         0.173397        -0.572672        -0.613428
 C         1.528564        -0.047273        -0.161985
 C         2.456619         0.766027        -1.114029
 C         3.599684         0.919321        -0.037528
 C         2.795937         0.939455         1.302837
 O         1.435875         0.867890         0.936481
 C         3.465598        -0.322179         0.896778
 O         4.660115        -0.750174         1.583596
 C         2.512705        -1.181228         0.245260
 H        -0.395033        -0.793415         0.269719
 H        -0.312006         0.191709        -1.270704
 H         0.345583        -1.621764        -1.065159
 H         2.850686         0.270850        -1.957736
 H         1.914858         1.735162        -1.443195
 H         4.482212         1.423265        -0.200143
 H         2.901363         1.515666         2.264116
 H         4.658805        -1.688879         1.562055
 H         3.104787        -1.672660        -0.564443
 H         2.061276        -2.003756         0.799280
