19
Iteration:  2666charge 0 multiplicity 1
 C         0.167337        -0.420037        -0.928107
 C         1.475404        -0.145924        -0.207927
 C         2.572891         0.789957        -1.000745
 C         3.527558         1.004182         0.085050
 C         2.726501         0.884266         1.381076
 O         1.325344         0.658902         1.014447
 C         3.552338        -0.288115         0.898204
 O         4.786104        -0.762858         1.562717
 C         2.524315        -1.225651         0.226836
 H        -0.524248         0.435299        -0.908488
 H         0.363359        -0.622144        -2.048469
 H        -0.475841        -1.327931        -0.462058
 H         2.900543         0.250693        -1.850379
 H         2.173699         1.849043        -1.314400
 H         4.330982         1.739030         0.024382
 H         2.794474         1.527041         2.237614
 H         4.733846        -0.442129         2.457948
 H         2.916031        -1.757425        -0.630913
 H         1.989389        -1.935197         0.739258
