19
Iteration:  1090charge 0 multiplicity 1
 C         0.226229        -0.331784        -0.767928
 C         1.529753        -0.179268        -0.115561
 C         2.477801         0.623081        -1.056448
 C         3.520127         0.881801        -0.047912
 C         2.753294         0.998838         1.232495
 O         1.400856         0.805120         1.064430
 C         3.530956        -0.314947         0.917937
 O         4.681793        -0.706641         1.570647
 C         2.451633        -1.318669         0.302733
 H        -0.507720        -1.134607        -0.405413
 H        -0.370346         0.566276        -0.634935
 H         0.333775        -0.344544        -1.855487
 H         2.852652        -0.009160        -1.971230
 H         1.910790         1.408901        -1.403655
 H         4.395185         1.519644        -0.331814
 H         3.112100         1.710608         1.956514
 H         5.499150        -0.572582         1.091407
 H         3.018359        -1.891861        -0.432445
 H         2.089280        -1.894325         1.182061
