19
Iteration:   569
 C         0.201656        -0.603245        -0.696156
 C         1.519495        -0.061950        -0.217940
 C         2.492965         0.710674        -1.075334
 C         3.625612         0.842396        -0.017570
 C         2.799710         1.006991         1.298205
 O         1.423099         0.821121         0.970927
 C         3.556295        -0.332753         0.915093
 O         4.688390        -0.742072         1.489005
 C         2.331072        -1.116779         0.324350
 H        -0.391399        -0.714127         0.259536
 H        -0.284487         0.223729        -1.312823
 H         0.289077        -1.544905        -1.175822
 H         2.978400         0.252592        -1.984519
 H         2.169124         1.803224        -1.332067
 H         4.694649         1.379417        -0.180948
 H         3.043631         1.856931         1.924842
 H         4.445738        -1.006069         2.360068
 H         2.617509        -1.860468        -0.476467
 H         1.872173        -1.751683         1.114852
