19
Iteration:  3779
 C         0.210439        -0.388401        -0.908628
 C         1.536989        -0.117462        -0.239948
 C         2.549935         0.860428        -0.986597
 C         3.503172         0.976219         0.106756
 C         2.713463         0.847414         1.428869
 O         1.331848         0.545191         1.100632
 C         3.593166        -0.268360         0.844917
 O         4.721300        -0.639913         1.561113
 C         2.486741        -1.267548         0.073032
 H        -0.376487         0.497647        -0.499789
 H         0.309721        -0.218073        -2.028196
 H        -0.140091        -1.276559        -0.478054
 H         2.949694         0.357478        -1.883781
 H         2.058730         1.773595        -1.223032
 H         4.383298         1.649742         0.198414
 H         2.951587         1.333040         2.370712
 H         4.535120        -1.412896         2.203627
 H         2.907488        -1.689346        -0.853847
 H         1.981849        -1.964610         0.716285
