19
Iteration:   828charge 0 multiplicity 1
 C         0.202513        -0.367243        -0.715372
 C         1.554312        -0.123863        -0.183737
 C         2.559452         0.741149        -1.106541
 C         3.545314         0.897504        -0.051490
 C         2.739352         0.943993         1.246091
 O         1.367980         0.651971         1.033071
 C         3.530788        -0.294838         0.838920
 O         4.737551        -0.738365         1.445972
 C         2.427108        -1.211827         0.439990
 H        -0.548948        -0.352487         0.133096
 H        -0.071370         0.540965        -1.367523
 H         0.062947        -1.236746        -1.307096
 H         2.843904         0.243579        -2.127201
 H         2.095895         1.645394        -1.332124
 H         4.452027         1.391342        -0.023604
 H         2.877378         1.670017         2.060576
 H         4.646235        -0.733100         2.412397
 H         2.817690        -1.991383        -0.210372
 H         1.971514        -1.575594         1.403300
