19
Iteration:  2229
 C         0.284437        -0.583373        -0.872449
 C         1.542714        -0.109492        -0.181977
 C         2.503923         0.879585        -0.992030
 C         3.547088         1.078729         0.094910
 C         2.695242         0.939305         1.366831
 O         1.306410         0.749595         1.043583
 C         3.570484        -0.322439         0.785968
 O         4.692080        -0.854871         1.561946
 C         2.478898        -1.217727         0.298965
 H         0.407881        -0.275024        -1.995789
 H         0.241016        -1.654293        -0.881426
 H        -0.654280        -0.096799        -0.465096
 H         2.850493         0.485133        -1.964017
 H         1.877742         1.930693        -1.214566
 H         4.462512         1.790156         0.020473
 H         2.829679         1.540640         2.233884
 H         5.343517        -1.088955         0.918261
 H         2.793443        -1.883534        -0.546340
 H         1.932360        -1.796147         1.142743
