19
Iteration:  2620
 C         0.255205        -0.677627        -0.860913
 C         1.545088        -0.061150        -0.298215
 C         2.539633         0.949635        -1.068533
 C         3.568259         1.121760         0.139695
 C         2.728034         0.939506         1.339626
 O         1.408339         0.667388         1.037895
 C         3.541349        -0.260551         0.888024
 O         4.614582        -0.975540         1.553605
 C         2.469627        -1.103108         0.255051
 H        -0.752271        -0.249654        -0.394971
 H         0.196865        -0.561347        -1.946096
 H         0.222028        -1.719146        -0.433562
 H         3.040217         0.433918        -1.967792
 H         1.861796         1.795179        -1.460600
 H         4.371019         2.004098        -0.046504
 H         2.915784         1.630876         2.170821
 H         4.912416        -0.577424         2.344471
 H         2.724274        -1.851046        -0.526122
 H         1.913573        -1.639323         0.988119
