19
Iteration:  2614
 C         0.208193        -0.644216        -0.871361
 C         1.504160        -0.066846        -0.261825
 C         2.559959         0.911671        -1.077037
 C         3.580429         1.107886         0.129066
 C         2.735870         0.919239         1.343051
 O         1.362697         0.683807         1.050181
 C         3.603259        -0.239706         0.856753
 O         4.604536        -0.969074         1.564369
 C         2.544758        -1.073764         0.231296
 H        -0.621314        -0.215751        -0.456451
 H        -0.018092        -0.874238        -1.971591
 H         0.244686        -1.751274        -0.655797
 H         2.935978         0.398202        -1.914635
 H         2.009656         1.811249        -1.359052
 H         4.290040         1.857080         0.181241
 H         2.928612         1.518717         2.219080
 H         4.886702        -0.476427         2.352776
 H         2.706936        -1.848479        -0.513654
 H         1.860758        -1.585333         1.013691
