19
Iteration:  1623charge 0 multiplicity 1
 C         0.091002        -0.315422        -0.648380
 C         1.545084        -0.125021        -0.214330
 C         2.399971         0.741877        -1.157900
 C         3.514472         0.922004        -0.077537
 C         2.744874         0.929147         1.206141
 O         1.408793         0.674397         0.968918
 C         3.645727        -0.264589         0.983945
 O         4.764008        -0.840223         1.675475
 C         2.522358        -1.253584         0.232468
 H        -0.465508        -0.891129         0.107921
 H        -0.440002         0.596923        -0.710927
 H         0.257988        -0.876743        -1.652112
 H         2.559255         0.362632        -2.125412
 H         1.946681         1.875014        -1.225522
 H         4.417352         1.444503        -0.123478
 H         2.892359         1.777387         1.867348
 H         5.066814        -0.255753         2.355266
 H         2.930957        -1.746693        -0.678315
 H         2.049797        -2.013567         0.911414
