19
Iteration:  4589charge 0 multiplicity 1
 C         0.112458        -0.379266        -0.725255
 C         1.607432        -0.115031        -0.298245
 C         2.587585         0.832360        -1.110991
 C         3.529293         1.051681         0.105242
 C         2.675330         0.943550         1.339699
 O         1.377935         0.569133         0.982123
 C         3.513257        -0.314892         0.894666
 O         4.680069        -0.750021         1.616234
 C         2.571016        -1.241186         0.197202
 H        -0.219128        -0.620768        -1.762959
 H        -0.335949        -1.082953        -0.036123
 H        -0.269403         0.599700        -0.394429
 H         3.181151         0.332627        -2.025983
 H         2.281928         1.724662        -1.605203
 H         4.413645         1.720656        -0.173512
 H         2.825992         1.427697         2.366553
 H         4.479483        -1.576416         2.044736
 H         3.146324        -1.744730        -0.543561
 H         1.950390        -1.970492         0.659042
