19
Iteration:  3345
 C         0.195887        -0.428892        -0.824654
 C         1.568844        -0.066508        -0.214353
 C         2.546869         0.873697        -0.993692
 C         3.541905         1.105172         0.073131
 C         2.710943         0.798159         1.454754
 O         1.397779         0.603030         0.946904
 C         3.588842        -0.298773         0.786679
 O         4.557986        -0.684950         1.627363
 C         2.554759        -1.270261         0.189511
 H        -0.574124         0.349793        -0.498413
 H         0.421667        -0.383684        -1.897246
 H        -0.107540        -1.416689        -0.542343
 H         2.939443         0.406287        -1.842886
 H         1.850033         1.709577        -1.384549
 H         4.388729         1.740349         0.076765
 H         2.888743         1.046716         2.487581
 H         4.801116        -1.664464         1.541955
 H         2.965986        -1.784018        -0.659286
 H         2.172505        -1.994811         0.806466
