19
Iteration:  3465charge 0 multiplicity 1
 C         0.227640        -0.500474        -0.855257
 C         1.571833        -0.074755        -0.215656
 C         2.438045         0.886829        -0.970708
 C         3.568387         1.057475         0.085839
 C         2.713714         0.884408         1.366801
 O         1.363017         0.643569         0.999732
 C         3.547718        -0.309436         0.873975
 O         4.651410        -0.800877         1.571133
 C         2.576835        -1.168187         0.160344
 H        -0.123497         0.401671        -1.408423
 H         0.477712        -1.322148        -1.562157
 H        -0.390319        -0.800969        -0.028813
 H         2.869793         0.525327        -1.815597
 H         1.908273         1.850833        -1.215886
 H         4.474636         1.544996        -0.016880
 H         3.056413         1.202957         2.379236
 H         4.233356        -1.390567         2.178383
 H         3.031901        -1.630928        -0.715643
 H         2.038297        -1.929329         0.658114
