19
Iteration:  3350charge 0 multiplicity 1
 C         0.210366        -0.416249        -0.836197
 C         1.600496        -0.087079        -0.197677
 C         2.532503         0.876364        -0.983226
 C         3.499860         1.090836         0.094316
 C         2.736219         0.767484         1.388172
 O         1.395798         0.602853         0.954310
 C         3.534954        -0.286286         0.794504
 O         4.591429        -0.685742         1.649274
 C         2.568994        -1.259664         0.196726
 H        -0.556474         0.378238        -0.742488
 H         0.214286        -0.260497        -1.950192
 H        -0.311771        -1.371605        -0.490116
 H         3.057467         0.432792        -1.937959
 H         1.883683         1.685127        -1.245641
 H         4.381120         1.822146         0.084506
 H         2.983755         1.101693         2.415049
 H         4.861706        -1.568410         1.410262
 H         2.976569        -1.826652        -0.688740
 H         2.050615        -2.044414         0.943863
