19
Iteration:  4668
 C         0.284595        -0.504760        -0.935405
 C         1.568286        -0.103817        -0.213070
 C         2.554664         0.902502        -0.991144
 C         3.543983         1.038690         0.163884
 C         2.632433         0.952781         1.406134
 O         1.264326         0.719216         1.048365
 C         3.503382        -0.302423         0.915345
 O         4.820058        -0.883509         1.330268
 C         2.450169        -1.209522         0.297111
 H         0.183531        -1.581817        -0.989400
 H        -0.554037        -0.130174        -0.292656
 H         0.204384        -0.103832        -1.928025
 H         3.159004         0.384509        -1.788642
 H         1.964868         1.747062        -1.265465
 H         4.454745         1.632015         0.071173
 H         2.820592         1.270477         2.399485
 H         4.763191        -1.041823         2.282313
 H         2.854906        -1.933090        -0.419777
 H         1.885877        -1.651909         1.081052
