19
Iteration:  3327
 C         0.249606        -0.532095        -0.830187
 C         1.587389        -0.052225        -0.274893
 C         2.534829         0.880429        -1.040422
 C         3.568842         1.024238         0.130878
 C         2.686373         0.856620         1.342019
 O         1.312815         0.646884         1.084117
 C         3.514874        -0.277206         0.874563
 O         4.652948        -0.760361         1.637835
 C         2.574732        -1.145945         0.083607
 H        -0.588502         0.106988        -0.372764
 H         0.001354        -0.341411        -1.815888
 H        -0.009791        -1.574118        -0.485424
 H         3.014830         0.354689        -1.954581
 H         2.144109         1.869951        -1.348596
 H         4.418274         1.596040         0.068725
 H         2.964432         1.396953         2.259220
 H         4.561640        -1.778112         1.563111
 H         2.952516        -1.723204        -0.785832
 H         2.026567        -1.889000         0.829952
