19
Iteration:   850
 C         0.146283        -0.545778        -0.682497
 C         1.524207        -0.061382        -0.196505
 C         2.496232         0.703791        -1.041564
 C         3.568499         1.027042        -0.001401
 C         2.833070         0.918236         1.306948
 O         1.434921         0.896898         0.942267
 C         3.529752        -0.290787         0.863537
 O         4.713052        -0.777510         1.484393
 C         2.441494        -1.255889         0.327784
 H        -0.464499        -1.005106         0.161301
 H        -0.539630         0.214371        -1.167529
 H         0.266175        -1.323055        -1.424515
 H         2.910511         0.051700        -1.933372
 H         2.099401         1.544882        -1.489170
 H         4.471848         1.490688        -0.152232
 H         2.917093         1.454567         2.275101
 H         4.459364        -1.321632         2.277499
 H         2.702121        -1.921050        -0.516841
 H         1.881184        -1.781626         1.150526
