19
Iteration:  4398charge 0 multiplicity 1
 C         0.289842        -0.502929        -0.890038
 C         1.535598        -0.060223        -0.207115
 C         2.552998         0.817145        -1.017835
 C         3.558605         1.015181         0.107765
 C         2.646372         0.916612         1.352845
 O         1.327262         0.668074         1.056634
 C         3.535978        -0.266449         0.963225
 O         4.652668        -0.885184         1.389310
 C         2.517219        -1.130403         0.324458
 H         0.695716        -0.792693        -1.887887
 H        -0.142073        -1.439651        -0.429005
 H        -0.409868         0.313717        -0.942381
 H         2.882977         0.405561        -1.964453
 H         1.985667         1.799220        -1.422562
 H         4.490306         1.518208         0.059243
 H         2.948996         1.596105         2.170632
 H         5.066076        -0.490246         2.190129
 H         2.754627        -1.810227        -0.511771
 H         1.941814        -1.854676         0.933462
