19
Iteration:  4043charge 0 multiplicity 1
 C         0.144852        -0.346422        -0.801100
 C         1.535287        -0.092330        -0.271111
 C         2.516636         0.982553        -1.011217
 C         3.490526         1.018005         0.222796
 C         2.704808         0.726107         1.423013
 O         1.326754         0.514503         0.999522
 C         3.588364        -0.296311         0.791466
 O         4.709800        -0.672859         1.560160
 C         2.666774        -1.262081         0.021785
 H        -0.467282         0.462809        -0.395399
 H        -0.057515        -0.619211        -1.828773
 H        -0.302337        -1.149443        -0.166421
 H         3.054871         0.389874        -1.852149
 H         2.102139         1.934952        -1.256274
 H         4.453675         1.632058         0.275522
 H         2.772978         1.075457         2.492205
 H         4.378892        -1.032521         2.414096
 H         3.093074        -1.694818        -0.863279
 H         2.160173        -1.978482         0.640939
