19
Iteration:   106charge 0 multiplicity 1
 C        -0.003009        -0.328938        -0.813337
 C         1.483908        -0.165702        -0.217711
 C         2.531427         0.658929        -1.090291
 C         3.590078         0.754331        -0.046719
 C         2.796592         0.886694         1.329504
 O         1.387181         0.749710         1.083112
 C         3.594129        -0.310810         0.890204
 O         4.847090        -0.536534         1.562519
 C         2.391104        -1.262921         0.294216
 H        -0.655330        -0.539760         0.121580
 H        -0.373951         0.569617        -1.289141
 H        -0.052537        -1.086772        -1.711714
 H         2.943333         0.066588        -2.049304
 H         2.184329         1.577631        -1.487724
 H         4.625036         1.103920        -0.248815
 H         3.093700         1.569092         2.082120
 H         4.532937        -0.493212         2.448460
 H         2.925003        -1.825039        -0.547252
 H         1.961891        -1.885396         1.132645
