19
Iteration:   525
 C         0.113152        -0.212520        -0.777023
 C         1.537982        -0.272397        -0.167566
 C         2.480878         0.535688        -1.015667
 C         3.546781         0.873275        -0.084275
 C         2.754955         1.033028         1.300107
 O         1.445876         0.695049         0.926946
 C         3.559577        -0.238409         0.876088
 O         4.761321        -0.678050         1.547847
 C         2.490595        -1.280178         0.401852
 H        -0.661305        -0.880993        -0.332205
 H        -0.226247         0.892084        -0.617432
 H         0.078628        -0.264359        -1.825937
 H         2.713180        -0.181532        -1.820967
 H         1.942257         1.425502        -1.477523
 H         4.460729         1.503911        -0.303002
 H         2.915971         1.832462         1.983922
 H         4.374483        -0.664825         2.407755
 H         2.800581        -2.068046        -0.318109
 H         2.027935        -1.889027         1.230081
