19
Iteration:  2583
 C         0.271929        -0.434643        -0.818372
 C         1.626696        -0.154365        -0.196823
 C         2.475890         0.832309        -1.022168
 C         3.495596         1.044021         0.084103
 C         2.689207         0.919543         1.356977
 O         1.385717         0.667362         0.976851
 C         3.510116        -0.311356         0.967728
 O         4.624227        -0.797460         1.550220
 C         2.562346        -1.260780         0.127899
 H        -0.430402         0.264609        -0.493705
 H         0.338030        -0.450860        -1.924622
 H        -0.050300        -1.390576        -0.457686
 H         2.910227         0.392109        -2.005101
 H         1.933119         1.713033        -1.243110
 H         4.396266         1.510018         0.165549
 H         2.764287         1.480898         2.283869
 H         4.869139        -0.083071         2.197557
 H         3.037857        -1.625217        -0.800781
 H         2.027165        -2.109280         0.781970
