19
Iteration:  3163charge 0 multiplicity 1
 C         0.352836        -0.595522        -0.851916
 C         1.603802        -0.090920        -0.242668
 C         2.459697         0.865382        -0.948139
 C         3.550629         1.036940         0.195429
 C         2.646968         0.864050         1.385035
 O         1.346372         0.805690         0.979549
 C         3.516838        -0.229176         0.917454
 O         4.659648        -0.878677         1.456542
 C         2.533680        -1.194220         0.167931
 H        -0.135730         0.243779        -1.513875
 H         0.505117        -1.410630        -1.487520
 H        -0.215345        -0.758122         0.088524
 H         2.895087         0.582072        -1.968671
 H         1.881421         1.712472        -0.969307
 H         4.328455         1.781040        -0.100219
 H         2.766706         1.469037         2.299541
 H         4.442650        -1.476581         2.138361
 H         2.988431        -1.566890        -0.757803
 H         2.011576        -2.040895         0.744084
