19
Iteration:  1004charge 0 multiplicity 1
 C         0.205143        -0.608379        -0.725457
 C         1.529455        -0.068283        -0.161785
 C         2.499216         0.782327        -1.088881
 C         3.604034         0.973896        -0.038153
 C         2.812147         1.060893         1.263467
 O         1.408572         0.774537         1.062464
 C         3.496749        -0.242898         0.844110
 O         4.652636        -0.844371         1.525041
 C         2.460423        -1.172102         0.321813
 H        -0.412563        -0.590967         0.215983
 H        -0.222226         0.045209        -1.434460
 H         0.215866        -1.689109        -0.974836
 H         2.831323         0.151176        -2.064434
 H         1.999484         1.667492        -1.386141
 H         4.505041         1.666507        -0.222794
 H         3.015197         1.756023         2.047878
 H         4.334266        -1.674530         1.838715
 H         3.007473        -1.746390        -0.497425
 H         2.001069        -1.921448         1.025862
