19
Iteration:  2989charge 0 multiplicity 1
 C         0.210678        -0.397509        -0.941611
 C         1.552947        -0.101955        -0.276522
 C         2.555752         0.837649        -1.021669
 C         3.506558         1.062048         0.111170
 C         2.722627         0.813774         1.406174
 O         1.370582         0.562668         1.045873
 C         3.539373        -0.275734         0.843888
 O         4.765411        -0.721377         1.517663
 C         2.448149        -1.232350         0.285340
 H        -0.114339         0.353515        -1.785168
 H         0.087593        -1.446612        -1.183728
 H        -0.603007        -0.375217        -0.124281
 H         3.123103         0.519765        -2.037040
 H         2.134005         1.790839        -1.302158
 H         4.353163         1.742814         0.274141
 H         2.779514         1.432080         2.280031
 H         4.458829        -1.099093         2.419080
 H         2.725958        -1.790701        -0.552972
 H         1.990078        -1.819915         1.040312
