19
Iteration:  2462charge 0 multiplicity 1
 C         0.254717        -0.553970        -0.809691
 C         1.561844        -0.080655        -0.283283
 C         2.499802         0.917356        -1.002197
 C         3.486695         1.125806         0.091927
 C         2.724371         0.818681         1.434098
 O         1.401470         0.640224         0.957448
 C         3.526768        -0.317768         0.872413
 O         4.598238        -0.756234         1.598193
 C         2.562123        -1.159126         0.193385
 H        -0.259569         0.232641        -1.218789
 H         0.489326        -1.321199        -1.597039
 H        -0.345004        -0.865274         0.072823
 H         3.164991         0.452695        -1.880022
 H         1.917921         1.703094        -1.495830
 H         4.434921         1.802016         0.152111
 H         2.959450         1.155282         2.443612
 H         4.840556        -1.576782         1.227235
 H         3.032959        -1.777863        -0.588250
 H         1.906530        -1.704018         0.966656
