19
Iteration:  4935
 C         0.282500        -0.509691        -0.936144
 C         1.525077        -0.056761        -0.144434
 C         2.500009         0.826528        -1.052160
 C         3.529602         0.983014         0.041597
 C         2.769464         0.858732         1.429881
 O         1.348569         0.830370         1.009756
 C         3.551692        -0.291227         0.861324
 O         4.778089        -0.776640         1.448813
 C         2.374507        -1.273574         0.364815
 H         0.278264        -1.590982        -0.643293
 H        -0.663728        -0.086812        -0.506048
 H         0.281704        -0.206002        -1.984485
 H         2.899682         0.232305        -1.825642
 H         2.005541         1.828528        -1.420278
 H         4.271870         1.697860         0.053168
 H         2.993374         1.439121         2.383549
 H         4.539704        -1.501490         2.034904
 H         2.740658        -1.976846        -0.372606
 H         1.774490        -1.887694         1.091110
