19
Iteration:  2637
 C         0.362986        -0.575780        -0.800729
 C         1.598025        -0.084973        -0.209585
 C         2.491801         0.928984        -1.035858
 C         3.492744         1.085289         0.044388
 C         2.750642         0.949946         1.376761
 O         1.350443         0.718302         0.957236
 C         3.477855        -0.276660         0.942519
 O         4.587852        -0.926734         1.473466
 C         2.552238        -1.208483         0.284301
 H        -0.437850         0.005316        -0.489935
 H         0.321233        -0.634305        -1.925330
 H         0.214240        -1.629137        -0.705319
 H         2.825483         0.468557        -1.972684
 H         2.028157         1.862589        -1.184894
 H         4.392035         1.500644         0.006133
 H         2.808641         1.458089         2.342407
 H         4.788421        -0.529962         2.317676
 H         3.039944        -1.834695        -0.477667
 H         1.826169        -1.909736         0.902422
