19
Iteration:  1870charge 0 multiplicity 1
 C         0.026015        -0.440430        -0.799570
 C         1.515784        -0.084852        -0.286849
 C         2.548499         0.832894        -1.066057
 C         3.562745         1.048287         0.077517
 C         2.749923         0.879013         1.375400
 O         1.392058         0.579505         1.048158
 C         3.588119        -0.230247         0.880463
 O         4.750592        -0.792638         1.427850
 C         2.505689        -1.235038         0.310724
 H        -0.574267        -0.565992         0.127108
 H        -0.194381         0.377572        -1.413802
 H        -0.040044        -1.369062        -1.302680
 H         2.998078         0.452541        -2.120998
 H         2.059676         1.709484        -1.358570
 H         4.525559         1.743895         0.097047
 H         2.915911         1.270868         2.382483
 H         4.706323        -0.552059         2.339223
 H         2.972937        -1.854966        -0.426692
 H         1.927854        -1.800035         1.083286
