19
Iteration:  3059charge 0 multiplicity 1
 C         0.238888        -0.464837        -0.820914
 C         1.561082         0.027767        -0.289221
 C         2.594047         0.916385        -1.102069
 C         3.517811         1.024022         0.079928
 C         2.678749         0.841157         1.369291
 O         1.317461         0.592053         1.020785
 C         3.572455        -0.285485         0.883343
 O         4.722551        -0.794710         1.592600
 C         2.487934        -1.168915         0.237392
 H        -0.597437         0.077171        -0.628464
 H         0.224725        -0.868232        -1.863421
 H         0.032171        -1.458716        -0.376850
 H         2.887515         0.338881        -1.894951
 H         2.032348         1.794999        -1.561468
 H         4.371516         1.627715         0.050197
 H         2.872981         1.394328         2.338600
 H         4.373951        -1.431809         2.309727
 H         2.913211        -1.868461        -0.564494
 H         1.978508        -1.795412         1.012226
