19
Iteration:   245charge 0 multiplicity 1
 C         0.145378        -0.216001        -0.766943
 C         1.506104        -0.083274        -0.200150
 C         2.466384         0.508197        -1.179748
 C         3.519246         0.853418        -0.159527
 C         2.771303         0.872381         1.286236
 O         1.369875         0.666241         1.077576
 C         3.573065        -0.288109         0.952334
 O         4.781254        -0.665074         1.606106
 C         2.488603        -1.191450         0.372519
 H        -0.381336        -1.081225        -0.300625
 H        -0.361549         0.649254        -0.499679
 H         0.164061        -0.052638        -1.847084
 H         2.743492        -0.295002        -1.839869
 H         2.292769         1.386127        -1.921608
 H         4.243550         1.659479        -0.368732
 H         3.031084         1.874499         1.764449
 H         4.655516        -0.765877         2.606913
 H         3.076446        -1.808697        -0.357020
 H         2.017076        -1.808151         1.100398
