19
Iteration:  3252charge 0 multiplicity 1
 C         0.214512        -0.358003        -0.982803
 C         1.541714        -0.110937        -0.262387
 C         2.466894         0.840503        -1.000671
 C         3.525055         0.970144         0.133138
 C         2.720178         0.876050         1.443842
 O         1.304879         0.565689         1.080420
 C         3.557254        -0.356691         0.933229
 O         4.791540        -0.722721         1.501566
 C         2.514948        -1.149447         0.193043
 H        -0.416810         0.544061        -1.192873
 H         0.501206        -0.750225        -1.981781
 H        -0.476959        -1.121583        -0.456964
 H         2.850274         0.231181        -1.935184
 H         2.168747         1.732252        -1.363361
 H         4.421832         1.398143        -0.037099
 H         2.766106         1.410088         2.388702
 H         4.695867        -0.545262         2.411567
 H         3.029493        -1.752183        -0.567420
 H         1.970021        -1.933521         0.866592
