19
Iteration:  3732charge 0 multiplicity 1
 C         0.183921        -0.488190        -0.789449
 C         1.599347        -0.136529        -0.259218
 C         2.492110         0.897779        -0.970108
 C         3.567376         1.106231         0.168450
 C         2.662344         0.829591         1.414062
 O         1.343981         0.670303         0.966978
 C         3.581593        -0.330747         0.826798
 O         4.637545        -0.826359         1.518581
 C         2.596548        -1.185115         0.109821
 H        -0.505627         0.334451        -0.641421
 H         0.514530        -0.580130        -1.845907
 H        -0.032817        -1.405497        -0.140487
 H         2.964617         0.527425        -1.931015
 H         1.957482         1.761588        -1.055843
 H         4.437128         1.816431         0.164092
 H         2.773710         1.529267         2.248216
 H         4.423211        -1.068354         2.440251
 H         2.924998        -1.562520        -0.850997
 H         2.176048        -1.933551         0.763917
