19
Iteration:  4610
 C         0.176330        -0.380224        -0.782107
 C         1.568251        -0.096500        -0.237081
 C         2.491426         0.824954        -1.022966
 C         3.542730         1.019744         0.070651
 C         2.730997         0.829357         1.353614
 O         1.367952         0.662944         0.962515
 C         3.593454        -0.282363         0.876957
 O         4.644896        -0.775807         1.625202
 C         2.585630        -1.200827         0.186276
 H         0.310975        -1.232051        -1.496422
 H        -0.463486        -0.825765        -0.024066
 H        -0.374504         0.480300        -1.221748
 H         2.845173         0.486168        -2.082665
 H         1.836580         1.611769        -1.361951
 H         4.393326         1.771448         0.115275
 H         2.844579         1.606500         2.174862
 H         4.443542        -1.719234         1.771453
 H         2.999771        -1.764548        -0.624761
 H         2.233677        -1.932798         0.934770
