19
Iteration:  3205
 C         0.204087        -0.466633        -0.847566
 C         1.601998        -0.099510        -0.325649
 C         2.573131         0.907519        -0.986794
 C         3.502308         1.066667         0.074681
 C         2.702318         0.798382         1.432426
 O         1.373649         0.561424         1.028086
 C         3.536183        -0.274075         0.855579
 O         4.677632        -0.742592         1.583108
 C         2.532595        -1.143210         0.162730
 H        -0.357859         0.258425        -1.583112
 H         0.107129        -1.427922        -1.314184
 H        -0.427714        -0.425822         0.033226
 H         2.970951         0.468467        -1.931914
 H         2.052908         1.862571        -1.343396
 H         4.429744         1.804183         0.063722
 H         2.862237         1.262055         2.430940
 H         4.410115        -1.459238         2.177428
 H         2.909782        -1.811819        -0.666929
 H         1.933578        -1.858551         0.898832
