19
Iteration:  4828charge 0 multiplicity 1
 C         0.278070        -0.353680        -0.961860
 C         1.556257        -0.126957        -0.223297
 C         2.441349         0.861568        -0.945793
 C         3.584621         0.960376         0.074863
 C         2.710311         0.828149         1.455988
 O         1.353992         0.612576         1.034420
 C         3.544727        -0.318488         0.943436
 O         4.813046        -0.704089         1.406518
 C         2.378514        -1.231471         0.272351
 H        -0.593111        -0.495998        -0.261839
 H        -0.046961         0.484938        -1.618955
 H         0.310387        -1.307797        -1.453696
 H         2.702118         0.497182        -1.969472
 H         1.895017         1.894257        -1.160579
 H         4.443234         1.528881        -0.091081
 H         2.830606         1.455708         2.356495
 H         4.619174        -1.016027         2.292065
 H         2.788987        -1.770949        -0.607829
 H         1.995916        -1.999483         0.999671
