19
Iteration:   438charge 0 multiplicity 1
 C         0.110569        -0.566295        -0.719913
 C         1.569715        -0.120475        -0.251926
 C         2.490926         0.694751        -1.118041
 C         3.603813         0.915858        -0.083207
 C         2.810631         1.129093         1.224362
 O         1.443150         0.783377         1.006659
 C         3.524046        -0.161907         0.978210
 O         4.651524        -0.961389         1.507403
 C         2.485162        -1.076927         0.417196
 H        -0.293735        -1.055001         0.169389
 H        -0.563051         0.343100        -1.022769
 H         0.221522        -1.300866        -1.447657
 H         2.737298         0.199721        -2.009694
 H         1.995678         1.627219        -1.445189
 H         4.469835         1.419676        -0.253574
 H         3.016918         1.845818         2.006903
 H         4.469307        -1.375780         2.401159
 H         2.972629        -1.786086        -0.273894
 H         1.863942        -1.592965         1.213287
