19
Iteration:   352
 C         0.185819        -0.381818        -0.715222
 C         1.581814        -0.146925        -0.176562
 C         2.455087         0.673535        -1.120634
 C         3.548897         0.975079        -0.132245
 C         2.763701         0.940904         1.296810
 O         1.376363         0.767632         0.936310
 C         3.571833        -0.285307         0.908905
 O         4.723494        -0.811198         1.527753
 C         2.489178        -1.193419         0.445173
 H        -0.576777        -0.159393         0.051893
 H        -0.081672         0.411387        -1.460730
 H        -0.086811        -1.352022        -1.035000
 H         2.823833         0.053094        -1.862384
 H         1.880953         1.595890        -1.506521
 H         4.393587         1.534294        -0.316034
 H         3.073490         1.609853         2.163551
 H         4.495483        -1.126738         2.447974
 H         2.888195        -1.879837        -0.295760
 H         1.980324        -1.730693         1.235124
