19
Iteration:  4971
 C         0.181625        -0.229719        -0.932751
 C         1.520982        -0.168590        -0.220808
 C         2.494914         0.761025        -1.036265
 C         3.552503         0.932032        -0.007126
 C         2.743891         0.987254         1.389034
 O         1.366516         0.609967         1.042394
 C         3.533611        -0.293359         0.971482
 O         4.761201        -0.693090         1.491587
 C         2.467902        -1.380845         0.314744
 H        -0.193464        -1.216799        -0.712161
 H        -0.535178         0.384554        -0.342985
 H         0.040252        -0.278384        -2.000271
 H         2.847441         0.144866        -1.842915
 H         2.132192         1.745043        -1.485945
 H         4.489728         1.640990        -0.294554
 H         3.029150         1.562978         2.223396
 H         4.690507        -0.778519         2.430374
 H         3.073829        -1.969064        -0.433624
 H         1.976258        -1.958732         1.103574
