19
Iteration:  3180
 C         0.256857        -0.595455        -0.807570
 C         1.504427         0.005571        -0.214402
 C         2.547459         0.931805        -1.012081
 C         3.556154         1.025462         0.153751
 C         2.693074         0.961725         1.401317
 O         1.283958         0.673514         1.010130
 C         3.544430        -0.316648         0.871548
 O         4.679218        -0.861543         1.531719
 C         2.591287        -1.151004         0.126477
 H        -0.200744        -0.010022        -1.581562
 H         0.508703        -1.609477        -1.322168
 H        -0.577834        -0.778567        -0.160955
 H         2.975117         0.437424        -1.841792
 H         2.144070         1.975115        -1.496182
 H         4.544838         1.673598         0.218183
 H         2.859885         1.443783         2.330848
 H         4.365012        -1.605926         1.985655
 H         3.009124        -1.618865        -0.801293
 H         2.171870        -1.987540         0.703946
