19
Iteration:  4055
 C         0.162492        -0.345772        -0.825777
 C         1.616301        -0.152309        -0.262401
 C         2.527747         1.015606        -0.975107
 C         3.446153         1.143130         0.173480
 C         2.635292         0.715587         1.428871
 O         1.347334         0.540152         1.004397
 C         3.566340        -0.371101         0.818709
 O         4.772479        -0.724169         1.512375
 C         2.574454        -1.308207         0.111380
 H        -0.250583         0.649316        -0.935582
 H         0.168655        -0.714807        -1.842770
 H        -0.402172        -1.051889        -0.114400
 H         3.000882         0.734791        -1.941627
 H         1.898666         1.901637        -1.207599
 H         4.274781         1.814068         0.275664
 H         2.828724         1.232618         2.433554
 H         4.449030        -0.935802         2.452753
 H         2.948425        -1.665450        -0.842135
 H         2.362354        -2.148182         0.749287
