19
Iteration:     3charge 0 multiplicity 1
 C         0.182869        -0.448303        -0.689315
 C         1.539457        -0.088898        -0.171010
 C         2.498942         0.674111        -1.087491
 C         3.582419         0.898226        -0.053874
 C         2.788894         0.975508         1.251029
 O         1.420967         0.810986         0.968772
 C         3.530100        -0.321676         0.893240
 O         4.688522        -0.740625         1.493066
 C         2.443023        -1.203479         0.361650
 H        -0.349263        -0.994095         0.070092
 H        -0.390976         0.503941        -0.954210
 H         0.224638        -1.119552        -1.514157
 H         2.792466         0.075722        -1.868091
 H         2.039118         1.652922        -1.439525
 H         4.438689         1.468139        -0.125862
 H         3.068097         1.572680         2.157054
 H         4.440647        -1.115466         2.379033
 H         2.763875        -1.945997        -0.370457
 H         1.975330        -1.800224         1.147305
