19
Iteration:   113charge 0 multiplicity 1
 C         0.004332        -0.340012        -0.778051
 C         1.454837        -0.073277        -0.236331
 C         2.543275         0.675141        -1.149473
 C         3.609007         0.756617        -0.066740
 C         2.799608         0.886831         1.286540
 O         1.383124         0.671598         1.062939
 C         3.583028        -0.345081         0.892278
 O         4.858638        -0.549936         1.586066
 C         2.416540        -1.237309         0.366994
 H        -0.743425        -0.493788        -0.003278
 H        -0.360416         0.505123        -1.438065
 H         0.019299        -1.220174        -1.434161
 H         2.765376         0.163779        -2.013697
 H         2.186900         1.737729        -1.469061
 H         4.623922         1.390049        -0.062449
 H         3.029081         1.564111         2.089475
 H         4.723122        -0.638735         2.552901
 H         2.676296        -1.798857        -0.563190
 H         1.830769        -1.788204         1.104016
