19
Iteration:   538charge 0 multiplicity 1
 C         0.097301        -0.272102        -0.818819
 C         1.501546        -0.200452        -0.149175
 C         2.515304         0.532068        -1.145819
 C         3.507898         0.977198        -0.049416
 C         2.818384         0.918085         1.236871
 O         1.413594         0.786416         1.036383
 C         3.589635        -0.297436         0.884708
 O         4.693828        -0.677346         1.532201
 C         2.490681        -1.305901         0.447390
 H        -0.673705        -0.782873        -0.175725
 H        -0.150279         0.767199        -0.801443
 H         0.108617        -0.742964        -1.833982
 H         3.061420         0.016553        -1.829828
 H         1.959085         1.392608        -1.675819
 H         4.474463         1.644713        -0.284755
 H         3.097631         1.558467         2.094499
 H         4.626513        -0.787276         2.530274
 H         2.904187        -1.944200        -0.389102
 H         2.163199        -1.841509         1.326278
