19
Iteration:  3389charge 0 multiplicity 1
 C         0.240404        -0.387370        -0.955473
 C         1.498238        -0.091332        -0.199768
 C         2.512607         0.849844        -0.999127
 C         3.540345         0.996309         0.100788
 C         2.692244         0.831792         1.363138
 O         1.340753         0.578339         1.026431
 C         3.499619        -0.323074         0.981033
 O         4.698749        -0.811404         1.555930
 C         2.536460        -1.159001         0.230397
 H        -0.159363         0.600829        -1.302249
 H         0.582335        -1.160923        -1.633266
 H        -0.475195        -0.862215        -0.295519
 H         2.827897         0.457738        -1.903187
 H         2.178309         1.921899        -1.232624
 H         4.347579         1.584126         0.041511
 H         2.877825         1.444912         2.241235
 H         5.352717        -0.112209         1.183876
 H         2.980612        -1.658168        -0.603676
 H         2.146438        -1.862237         0.872294
