19
Iteration:   271
 C         0.078180        -0.363754        -0.715218
 C         1.546038        -0.232672        -0.187802
 C         2.559965         0.595063        -1.057172
 C         3.638036         0.996292        -0.041492
 C         2.799808         1.030133         1.208739
 O         1.395169         0.795178         0.989601
 C         3.545226        -0.319447         0.845549
 O         4.669948        -0.687910         1.528342
 C         2.432673        -1.306432         0.388425
 H        -0.440805        -1.251276        -0.315727
 H        -0.483381         0.564408        -0.378546
 H         0.066539        -0.116624        -1.816583
 H         3.050600         0.047791        -1.942193
 H         2.113152         1.393083        -1.546991
 H         4.606379         1.433335        -0.330539
 H         3.065381         1.424858         2.148183
 H         4.482403        -0.881174         2.501367
 H         2.870561        -2.072871        -0.300268
 H         1.968331        -1.800848         1.325002
