19
Iteration:  4151
 C         0.163805        -0.430423        -0.823730
 C         1.593957        -0.049830        -0.305869
 C         2.502752         1.010660        -0.911460
 C         3.547205         1.041598         0.232612
 C         2.617198         0.822394         1.369873
 O         1.315527         0.430469         1.042929
 C         3.581665        -0.312642         0.887339
 O         4.744354        -0.720993         1.452760
 C         2.597307        -1.199709         0.058551
 H        -0.280798         0.507363        -1.160991
 H        -0.005598        -1.123195        -1.629900
 H        -0.225928        -0.691272         0.113294
 H         3.113902         0.564945        -1.824671
 H         2.068844         1.926730        -1.154003
 H         4.189652         1.835985         0.371474
 H         2.665882         1.359300         2.340344
 H         4.540520        -1.531057         2.033424
 H         3.122306        -1.539901        -0.828878
 H         2.146273        -2.007808         0.646969
