19
Iteration:   112
 C        -0.002121        -0.342280        -0.782570
 C         1.458203        -0.087784        -0.235828
 C         2.543579         0.671704        -1.144232
 C         3.607915         0.750513        -0.063025
 C         2.799028         0.885145         1.292144
 O         1.381993         0.681597         1.068312
 C         3.587675        -0.336975         0.887923
 O         4.859653        -0.546942         1.582551
 C         2.412273        -1.242749         0.357606
 H        -0.709160        -0.486741        -0.011512
 H        -0.374475         0.506756        -1.434943
 H         0.008913        -1.157593        -1.455934
 H         2.786938         0.172884        -2.003850
 H         2.186330         1.724387        -1.483476
 H         4.609935         1.331518        -0.074084
 H         3.044818         1.586576         2.113614
 H         4.694518        -0.617311         2.571076
 H         2.701404        -1.764146        -0.550577
 H         1.852098        -1.779617         1.100831
