19
Iteration:  3409charge 0 multiplicity 1
 C         0.290769        -0.482505        -0.945047
 C         1.613541        -0.085663        -0.220033
 C         2.542380         0.840842        -0.979012
 C         3.512929         1.071799         0.188672
 C         2.667830         0.858439         1.493619
 O         1.315282         0.751183         1.043647
 C         3.511025        -0.273418         0.825564
 O         4.677920        -0.854939         1.444693
 C         2.495547        -1.303417         0.210226
 H        -0.146871         0.337400        -1.482432
 H         0.346545        -1.548580        -1.476789
 H        -0.501790        -0.694665        -0.245867
 H         3.044533         0.388690        -1.752149
 H         2.016024         1.740252        -1.374496
 H         4.357484         1.665377         0.144266
 H         2.878658         1.345130         2.434614
 H         5.182335        -0.107783         1.795652
 H         2.875892        -1.812039        -0.702681
 H         1.981621        -1.927168         0.889148
