19
Iteration:  4224
 C         0.282471        -0.530870        -0.981390
 C         1.587434        -0.050268        -0.321557
 C         2.435124         1.043053        -0.927442
 C         3.461428         1.079905         0.167352
 C         2.678475         0.760180         1.437940
 O         1.351656         0.588125         1.096836
 C         3.538362        -0.309467         0.937957
 O         4.754247        -0.842260         1.353639
 C         2.543338        -1.178050         0.249869
 H        -0.629775        -0.216256        -0.335182
 H         0.195763        -0.001040        -2.018834
 H         0.374420        -1.617836        -0.981438
 H         2.786205         0.600869        -1.836375
 H         1.868068         2.001360        -1.053241
 H         4.358538         1.668605         0.212120
 H         2.908142         1.418359         2.306440
 H         4.650953        -0.871104         2.347520
 H         3.135837        -1.625605        -0.597497
 H         1.877000        -1.828762         0.920972
