19
Iteration:  1957charge 0 multiplicity 1
 C         0.335406        -0.551497        -0.774965
 C         1.548067        -0.025138        -0.162215
 C         2.513651         0.872017        -0.980231
 C         3.535910         1.069709         0.095642
 C         2.673367         0.838030         1.422392
 O         1.319808         0.696994         1.034982
 C         3.504719        -0.306972         0.785023
 O         4.733536        -0.756063         1.376542
 C         2.493219        -1.201818         0.266606
 H        -0.355763        -0.896580         0.039780
 H        -0.161180         0.206166        -1.345053
 H         0.506062        -1.398797        -1.352691
 H         2.993966         0.284444        -1.890015
 H         2.074166         1.743365        -1.371962
 H         4.453252         1.695659         0.151880
 H         2.913378         1.366254         2.318065
 H         4.371981        -1.677684         1.501059
 H         2.705658        -1.783476        -0.605954
 H         1.931952        -1.675376         1.070864
