19
Iteration:   314
 C         0.174868        -0.727527        -0.686902
 C         1.475844         0.007645        -0.204280
 C         2.568231         0.778759        -1.080995
 C         3.655919         0.866255        -0.075132
 C         2.874703         1.046788         1.217240
 O         1.360664         0.902295         1.047569
 C         3.510149        -0.236263         0.930947
 O         4.690160        -0.865492         1.521567
 C         2.358687        -1.117553         0.328770
 H        -0.109952        -1.274631         0.233949
 H        -0.569163         0.019031        -1.031110
 H         0.368009        -1.313968        -1.641364
 H         2.773986         0.039083        -1.951036
 H         2.251934         1.709478        -1.476451
 H         4.642948         1.350054        -0.325760
 H         3.111744         1.713856         1.974395
 H         4.343858        -1.414429         2.287967
 H         2.713239        -1.801330        -0.493821
 H         1.779308        -1.776655         1.089933
