19
Iteration:   770charge 0 multiplicity 1
 C         0.191394        -0.452903        -0.649686
 C         1.525556        -0.006903        -0.188306
 C         2.534901         0.741242        -1.087249
 C         3.589095         0.888528        -0.071961
 C         2.837891         0.963065         1.254294
 O         1.390073         0.755420         1.010663
 C         3.482671        -0.331385         0.855033
 O         4.692942        -0.682806         1.508575
 C         2.416982        -1.295562         0.307331
 H        -0.404994        -0.679121         0.180306
 H        -0.363223         0.283501        -1.278436
 H         0.308620        -1.325268        -1.294857
 H         2.860697         0.034661        -1.835611
 H         2.169379         1.768334        -1.513189
 H         4.529422         1.603349        -0.044587
 H         2.984378         1.395643         2.239448
 H         4.346045        -1.193067         2.296812
 H         2.832434        -2.034256        -0.363476
 H         2.007753        -1.836867         1.193816
