19
Iteration:  1992charge 0 multiplicity 1
 C         0.163833        -0.456207        -0.866379
 C         1.578405        -0.086009        -0.208713
 C         2.422614         0.837943        -1.004348
 C         3.508572         1.034524         0.098986
 C         2.697019         0.930266         1.348418
 O         1.353578         0.618195         1.043596
 C         3.569129        -0.283871         0.979554
 O         4.819559        -0.859760         1.418501
 C         2.489021        -1.194608         0.262108
 H        -0.290748        -1.286827        -0.470109
 H        -0.435802         0.369830        -0.679029
 H         0.265661        -0.501270        -1.940375
 H         2.740576         0.266318        -1.925642
 H         1.976961         1.746519        -1.297698
 H         4.414285         1.514891        -0.015561
 H         2.805957         1.708015         2.121334
 H         5.203460        -0.466746         2.278206
 H         2.986358        -1.642973        -0.565550
 H         1.959434        -1.992066         0.715588
