19
Iteration:   462
 C         0.264908        -0.637784        -0.631171
 C         1.552704        -0.034608        -0.122123
 C         2.531666         0.737515        -1.113867
 C         3.575152         0.943919        -0.068348
 C         2.806060         1.008924         1.221973
 O         1.391702         0.960636         0.924716
 C         3.511583        -0.294809         0.841031
 O         4.618821        -0.903861         1.515876
 C         2.402863        -1.180819         0.423146
 H         0.050881        -1.566733        -0.035724
 H        -0.514257         0.066809        -0.465071
 H         0.400484        -0.957587        -1.695844
 H         2.832515         0.138028        -1.898308
 H         2.110203         1.687317        -1.583356
 H         4.544299         1.553760        -0.165313
 H         3.116529         1.650729         2.014963
 H         4.401257        -1.215644         2.378180
 H         2.744184        -1.757236        -0.475867
 H         1.943334        -1.763163         1.191718
