19
Iteration:  3019charge 0 multiplicity 1
 C         0.298068        -0.575404        -0.929972
 C         1.545482        -0.080818        -0.175126
 C         2.462463         0.904284        -0.979578
 C         3.571229         0.987953         0.094523
 C         2.702480         0.933926         1.405448
 O         1.299557         0.772813         1.005507
 C         3.482290        -0.273958         0.926383
 O         4.681946        -0.888491         1.436152
 C         2.587723        -1.206905         0.259378
 H        -0.226751         0.226630        -1.560509
 H         0.736577        -1.440904        -1.500686
 H        -0.341613        -0.824215        -0.141111
 H         2.809864         0.644080        -1.996709
 H         2.018437         1.902582        -1.003010
 H         4.430656         1.501235         0.101488
 H         2.824071         1.591271         2.287035
 H         4.539982        -1.077060         2.352590
 H         3.032488        -1.585992        -0.689564
 H         2.209163        -2.112495         0.798190
