19
Iteration:  4792charge 0 multiplicity 1
 C         0.270873        -0.475290        -0.850369
 C         1.530365        -0.083834        -0.222002
 C         2.646342         0.815061        -0.997085
 C         3.569658         1.026490         0.172375
 C         2.604496         0.867864         1.504104
 O         1.248019         0.686641         1.025136
 C         3.556133        -0.192351         0.889054
 O         4.737800        -0.845868         1.283571
 C         2.508007        -1.140235         0.267823
 H        -0.337052        -0.391126         0.097182
 H        -0.089114         0.070131        -1.730024
 H         0.268034        -1.592091        -1.151042
 H         3.097098         0.144003        -1.667899
 H         2.222730         1.846937        -1.515397
 H         4.522138         1.662578         0.232108
 H         2.525063         1.390634         2.428612
 H         4.434700        -1.642172         1.725463
 H         2.817555        -1.671190        -0.662023
 H         2.072588        -1.834008         1.060647
