19
Iteration:   558charge 0 multiplicity 1
 C         0.211352        -0.454733        -0.716076
 C         1.516619        -0.002554        -0.167844
 C         2.535436         0.676613        -1.120143
 C         3.560722         0.876505        -0.059392
 C         2.793694         0.950896         1.275285
 O         1.408302         0.761769         1.012433
 C         3.538756        -0.273141         0.870584
 O         4.738494        -0.729136         1.534676
 C         2.375298        -1.231363         0.357994
 H        -0.468518        -0.790222         0.118510
 H        -0.391507         0.291403        -1.340092
 H         0.361961        -1.291204        -1.352023
 H         2.751161        -0.169378        -1.822198
 H         2.099278         1.543171        -1.728413
 H         4.547414         1.480168        -0.257663
 H         2.929759         1.640646         2.092747
 H         4.572213        -0.902465         2.474327
 H         2.674190        -1.929408        -0.461849
 H         1.737578        -1.651838         1.164810
