19
Iteration:   479
 C         0.146809        -0.575678        -0.672329
 C         1.484297        -0.051082        -0.190250
 C         2.501714         0.635010        -1.051433
 C         3.674355         0.934617        -0.002438
 C         2.863804         0.967656         1.271474
 O         1.475124         0.902150         0.921555
 C         3.538029        -0.318159         0.851671
 O         4.667409        -0.709060         1.533393
 C         2.346842        -1.189239         0.321532
 H        -0.017799        -1.552337        -0.272453
 H        -0.843075         0.076481        -0.555227
 H         0.127885        -0.594457        -1.746738
 H         2.926488        -0.043108        -1.929664
 H         2.071963         1.526084        -1.455211
 H         4.557538         1.324045        -0.310449
 H         2.959124         1.375235         2.303878
 H         4.470540        -1.042833         2.400385
 H         2.530979        -2.031109        -0.333726
 H         1.811903        -1.706591         1.203802
