19
Iteration:  3558
 C         0.279289        -0.525553        -0.951084
 C         1.555707        -0.077804        -0.190917
 C         2.503315         0.844297        -0.953207
 C         3.520133         1.079953         0.128466
 C         2.724677         0.833642         1.417300
 O         1.357210         0.699141         1.072022
 C         3.572173        -0.265966         0.879197
 O         4.676182        -0.869509         1.415045
 C         2.437599        -1.128273         0.241191
 H        -0.600254         0.073190        -0.855626
 H         0.653781        -0.599692        -2.003965
 H         0.210416        -1.623039        -0.718256
 H         2.853409         0.304315        -1.958411
 H         2.174373         1.779125        -1.337584
 H         4.363226         1.660859         0.064778
 H         2.787707         1.465828         2.287125
 H         4.651420        -0.607747         2.400299
 H         2.771174        -1.788429        -0.565515
 H         2.021308        -1.819801         0.972860
