19
Iteration:  2151
 C         0.172594        -0.360664        -0.812087
 C         1.553174        -0.135321        -0.236127
 C         2.445930         0.796694        -1.031985
 C         3.511453         1.053668         0.082612
 C         2.717552         0.825158         1.400846
 O         1.387369         0.637262         1.010826
 C         3.520442        -0.325384         0.867068
 O         4.716622        -0.663408         1.601042
 C         2.592487        -1.259310         0.189537
 H         0.051609        -1.377323        -1.378621
 H        -0.624760        -0.319794        -0.058943
 H        -0.079165         0.456019        -1.468089
 H         2.817647         0.609159        -1.983739
 H         1.845470         1.783541        -1.351734
 H         4.393495         1.551066        -0.053280
 H         2.869058         1.264476         2.413505
 H         5.185178        -1.448476         1.174884
 H         3.014880        -1.944869        -0.616592
 H         2.236990        -2.046886         0.950966
