19
Iteration:  4039
 C         0.150720        -0.361219        -0.764036
 C         1.496499        -0.058932        -0.316746
 C         2.521720         0.935137        -0.992229
 C         3.539043         1.019184         0.202429
 C         2.688882         0.735004         1.432736
 O         1.330666         0.499051         1.012357
 C         3.592705        -0.318284         0.817065
 O         4.689208        -0.657825         1.562142
 C         2.687652        -1.228235        -0.001649
 H        -0.567096         0.402612        -0.389522
 H        -0.026541        -0.500441        -1.849883
 H        -0.291145        -1.175238        -0.248361
 H         3.047559         0.382931        -1.819751
 H         2.084802         1.916586        -1.240290
 H         4.461653         1.644874         0.227540
 H         2.825638         1.047485         2.422788
 H         4.353518        -1.068482         2.366314
 H         3.150659        -1.666833        -0.908505
 H         2.057234        -1.874360         0.641817
