19
Iteration:  2696
 C         0.233453        -0.299884        -0.860604
 C         1.588576        -0.184955        -0.270554
 C         2.562103         0.785506        -1.030365
 C         3.506881         0.979753         0.079201
 C         2.684547         0.784191         1.407792
 O         1.364645         0.550557         1.045997
 C         3.525201        -0.274506         0.823279
 O         4.689079        -0.578778         1.554601
 C         2.528305        -1.275116         0.227534
 H        -0.106091         0.698556        -1.261779
 H         0.253677        -0.988298        -1.624576
 H        -0.414114        -0.476318        -0.009599
 H         2.901790         0.276449        -1.988266
 H         2.084755         1.768035        -1.317069
 H         4.379181         1.749884        -0.008590
 H         2.860832         1.383015         2.282842
 H         4.356717        -1.156566         2.334453
 H         2.994707        -1.951359        -0.552540
 H         1.821331        -1.792047         0.948358
