19
Iteration:  3420
 C         0.299132        -0.508179        -0.878626
 C         1.534441        -0.090832        -0.254254
 C         2.555703         0.868655        -0.971507
 C         3.524271         1.166255         0.176812
 C         2.653878         0.836227         1.487637
 O         1.315795         0.716916         0.969133
 C         3.530518        -0.308576         0.887125
 O         4.680584        -0.911233         1.405401
 C         2.502445        -1.182489         0.226823
 H        -0.096420         0.121862        -1.671088
 H         0.551523        -1.554350        -1.349581
 H        -0.259183        -0.603992         0.006753
 H         3.005089         0.409279        -1.776870
 H         2.103951         1.817875        -1.319180
 H         4.429088         1.564636        -0.053693
 H         2.732866         1.263899         2.485505
 H         4.979178        -0.344926         2.078510
 H         2.806514        -1.894148        -0.566928
 H         2.132184        -1.802824         1.010458
