19
Iteration:    52charge 0 multiplicity 1
 C         0.027402        -0.627661        -0.766559
 C         1.538992        -0.060943        -0.274550
 C         2.503986         0.704363        -1.092732
 C         3.654122         0.959552        -0.048878
 C         2.825198         1.085774         1.229075
 O         1.415721         0.796249         1.046394
 C         3.602195        -0.225434         0.983586
 O         4.700361        -0.869582         1.488706
 C         2.441899        -1.084092         0.407590
 H        -0.213036        -1.590183        -0.199568
 H        -0.670171         0.119742        -0.566079
 H        -0.044655        -1.081005        -1.821857
 H         2.912714         0.027864        -1.986940
 H         2.120077         1.632069        -1.385016
 H         4.485696         1.735595        -0.192933
 H         3.106357         1.653517         2.051841
 H         4.281106        -1.517644         2.046855
 H         2.780263        -2.045294        -0.044612
 H         1.804891        -1.526198         1.211367
