19
Iteration:  2983charge 0 multiplicity 1
 C         0.198085        -0.351861        -0.906223
 C         1.535779        -0.122406        -0.287986
 C         2.588849         0.821271        -1.037356
 C         3.531211         1.073415         0.148091
 C         2.725891         0.786740         1.413357
 O         1.347744         0.582589         1.050064
 C         3.582353        -0.290273         0.822290
 O         4.698747        -0.658537         1.499873
 C         2.471570        -1.288757         0.267064
 H        -0.031193         0.216976        -1.716991
 H        -0.031241        -1.381965        -1.304520
 H        -0.606804        -0.266246        -0.172640
 H         3.034337         0.373865        -1.833406
 H         2.103089         1.801759        -1.323019
 H         4.479029         1.767987         0.152523
 H         2.785928         1.288227         2.392081
 H         4.439586        -1.073273         2.326274
 H         2.928738        -1.928520        -0.602246
 H         2.090473        -1.878056         1.177481
