19
Iteration:  1343charge 0 multiplicity 1
 C         0.160530        -0.426559        -0.687279
 C         1.507259        -0.120033        -0.099640
 C         2.557196         0.609956        -1.116764
 C         3.535233         1.074358        -0.079031
 C         2.824463         0.964810         1.286169
 O         1.416611         0.789654         1.095058
 C         3.563499        -0.351580         0.790892
 O         4.673679        -0.764094         1.549105
 C         2.430960        -1.242242         0.219810
 H        -0.345350        -1.244813        -0.258793
 H        -0.504305         0.383968        -0.437763
 H         0.124303        -0.556700        -1.842007
 H         3.025295        -0.167554        -1.915205
 H         2.019603         1.306489        -1.704741
 H         4.408599         1.833769        -0.154014
 H         3.089386         1.478603         2.227558
 H         4.449401        -0.444143         2.505642
 H         2.955007        -1.938120        -0.460074
 H         1.925334        -1.919004         0.891391
