19
Iteration:  2499charge 0 multiplicity 1
 C         0.264877        -0.592015        -0.827130
 C         1.580715        -0.079994        -0.236315
 C         2.486733         0.945872        -0.964860
 C         3.596784         0.962535         0.134638
 C         2.687715         0.907951         1.370010
 O         1.268593         0.678204         0.993737
 C         3.507683        -0.245991         0.929582
 O         4.685059        -0.827304         1.445167
 C         2.584256        -1.116083         0.209357
 H        -0.066910        -0.012404        -1.801205
 H         0.452869        -1.592285        -1.189394
 H        -0.541681        -0.817871        -0.180922
 H         2.916483         0.556349        -1.865038
 H         2.144119         1.955710        -1.062428
 H         4.395773         1.590910         0.143462
 H         2.717213         1.534987         2.246616
 H         4.511767        -1.512621         2.120980
 H         3.136358        -1.589550        -0.576264
 H         2.105599        -1.868091         0.686117
