19
Iteration:  1051charge 0 multiplicity 1
 C         0.102614        -0.460053        -0.626929
 C         1.502255        -0.107360        -0.248488
 C         2.556342         0.745363        -1.073481
 C         3.584547         0.967307        -0.025698
 C         2.800412         0.926063         1.230070
 O         1.360029         0.768738         0.980829
 C         3.593555        -0.308328         0.791665
 O         4.724709        -0.709566         1.669462
 C         2.462318        -1.252895         0.297443
 H        -0.347051        -0.979317         0.178756
 H        -0.447052         0.429528        -0.973298
 H         0.097146        -1.320484        -1.431027
 H         3.009132         0.275784        -1.982761
 H         2.105242         1.767843        -1.378326
 H         4.320504         1.662791        -0.077162
 H         2.931243         1.668044         2.054109
 H         4.949304        -1.655462         1.382063
 H         2.488036        -2.095678        -0.512371
 H         1.855997        -1.570625         1.132181
