19
Iteration:  1562charge 0 multiplicity 1
 C         0.182507        -0.567031        -0.754237
 C         1.488860        -0.050310        -0.259779
 C         2.464140         0.760744        -1.123041
 C         3.594706         0.937483         0.013946
 C         2.759523         0.973328         1.326877
 O         1.407008         0.877230         0.998097
 C         3.502555        -0.321349         0.948547
 O         4.809870        -0.785284         1.449176
 C         2.401980        -1.198834         0.440479
 H         0.097085        -1.585096        -0.372497
 H        -0.667090         0.055102        -0.326533
 H        -0.058649        -0.609365        -1.819029
 H         2.782044         0.074943        -2.015361
 H         2.159829         1.680362        -1.460840
 H         4.668964         1.386426         0.043430
 H         3.098555         1.674452         2.071698
 H         4.765422        -1.728200         1.708271
 H         2.723975        -1.907746        -0.352925
 H         1.770675        -1.663894         1.180859
