19
Iteration:   728charge 0 multiplicity 1
 C         0.227449        -0.575723        -0.631295
 C         1.520822        -0.044754        -0.101298
 C         2.505374         0.754699        -1.080119
 C         3.533483         0.923883         0.008391
 C         2.729672         1.075087         1.167038
 O         1.371468         0.907923         0.887619
 C         3.605108        -0.273453         0.864768
 O         4.652589        -0.930938         1.531105
 C         2.551550        -1.181477         0.388373
 H        -0.084353        -1.487308        -0.136770
 H        -0.733639         0.128413        -0.511449
 H         0.196921        -0.867647        -1.669447
 H         2.781870         0.170696        -2.018658
 H         2.236208         1.718386        -1.454028
 H         4.461672         1.661987        -0.218656
 H         3.088945         1.469483         2.109218
 H         4.302706        -1.650589         2.021309
 H         2.798570        -1.794344        -0.436830
 H         2.025821        -1.865934         1.150678
