19
Iteration:  4999charge 0 multiplicity 1
 C         0.156379        -0.351416        -0.706457
 C         1.529750        -0.135149        -0.226984
 C         2.543867         0.761856        -1.060148
 C         3.591182         0.943927         0.086270
 C         2.708667         0.844819         1.329098
 O         1.337251         0.694184         0.907570
 C         3.589269        -0.327399         0.804755
 O         4.689330        -0.717288         1.597219
 C         2.544227        -1.193291         0.196099
 H        -0.291446        -1.122461         0.032444
 H        -0.344154         0.635823        -0.589911
 H        -0.127126        -0.745749        -1.688389
 H         3.011459         0.029273        -1.791083
 H         2.148778         1.767559        -1.360417
 H         4.378098         1.620104         0.040143
 H         3.042851         1.281021         2.325179
 H         4.337536        -0.752447         2.470038
 H         2.896455        -1.761944        -0.651563
 H         2.102792        -1.858957         0.985296
