19
Iteration:  4386
 C         0.288146        -0.527788        -0.856533
 C         1.580837        -0.061850        -0.226534
 C         2.508289         0.896083        -1.025969
 C         3.493133         1.025831         0.171901
 C         2.699751         0.967817         1.443065
 O         1.382057         0.709797         0.939179
 C         3.485707        -0.261559         0.955972
 O         4.708239        -0.925297         1.392478
 C         2.436048        -1.251037         0.269539
 H         0.536710        -1.141073        -1.760617
 H        -0.237966        -1.194644        -0.150636
 H        -0.402585         0.179483        -1.227628
 H         3.017770         0.292565        -1.711797
 H         2.082764         1.934014        -1.415815
 H         4.377858         1.553537         0.126982
 H         2.575117         1.509390         2.380556
 H         5.224432        -0.332319         1.915303
 H         2.979775        -1.842292        -0.466928
 H         2.032761        -1.721796         1.150699
