19
Iteration:  2146
 C         0.166607        -0.385930        -0.845738
 C         1.559323        -0.140576        -0.227728
 C         2.443245         0.831131        -1.017539
 C         3.506959         1.036009         0.088955
 C         2.738781         0.878125         1.367652
 O         1.371193         0.639119         1.041223
 C         3.514172        -0.370891         0.903109
 O         4.726243        -0.673303         1.595187
 C         2.572387        -1.291265         0.202290
 H         0.030824        -1.291636        -1.330090
 H        -0.620747        -0.278350        -0.087712
 H        -0.033732         0.403346        -1.613790
 H         2.833860         0.449341        -2.053796
 H         1.942583         1.793490        -1.181597
 H         4.473518         1.652176        -0.093386
 H         2.842732         1.344428         2.326389
 H         5.229529        -1.180290         0.910411
 H         3.105894        -1.766303        -0.626306
 H         2.154839        -2.016054         0.855956
