19
Iteration:  1954charge 0 multiplicity 1
 C         0.358531        -0.557547        -0.770436
 C         1.535590        -0.024378        -0.164585
 C         2.519195         0.892928        -0.989371
 C         3.545237         1.064116         0.069947
 C         2.689034         0.832899         1.410941
 O         1.327771         0.670527         1.032619
 C         3.488302        -0.294095         0.801873
 O         4.744901        -0.757390         1.400127
 C         2.469894        -1.188622         0.256911
 H        -0.381625        -0.807459         0.143117
 H        -0.213853         0.248977        -1.396059
 H         0.478444        -1.497390        -1.349008
 H         2.969109         0.296023        -1.833830
 H         1.954980         1.826499        -1.393979
 H         4.468442         1.743471         0.194905
 H         2.876333         1.343823         2.355864
 H         4.455126        -1.726848         1.447849
 H         2.639751        -1.846405        -0.648856
 H         1.862761        -1.644583         1.099684
