19
Iteration:   709
 C         0.217558        -0.508150        -0.740888
 C         1.517635        -0.102606        -0.145331
 C         2.503838         0.609284        -1.092389
 C         3.614564         0.971721        -0.060632
 C         2.818126         1.046544         1.332096
 O         1.397893         0.840105         1.036888
 C         3.522895        -0.230962         0.845562
 O         4.676301        -0.817919         1.507621
 C         2.412253        -1.211462         0.328145
 H         0.010649        -1.558723        -0.348312
 H        -0.510803         0.301205        -0.320493
 H         0.262816        -0.538971        -1.809756
 H         2.926524        -0.105937        -1.934925
 H         2.075375         1.395868        -1.661499
 H         4.520616         1.606794        -0.192121
 H         2.994381         1.871040         2.021029
 H         4.246057        -1.286065         2.242920
 H         2.714321        -1.905886        -0.476359
 H         1.832418        -1.775661         1.097279
