19
Iteration:  2022
 C         0.164783        -0.398814        -0.800545
 C         1.577769        -0.136072        -0.225725
 C         2.477781         0.887851        -0.998750
 C         3.596134         1.084644         0.029879
 C         2.757348         0.727011         1.324024
 O         1.405277         0.613254         1.067482
 C         3.601953        -0.300169         0.735556
 O         4.561340        -0.690921         1.588322
 C         2.536945        -1.289613         0.257734
 H        -0.327834        -1.484514        -0.685917
 H        -0.493998         0.262075        -0.178274
 H         0.045424        -0.067516        -1.827094
 H         2.729129         0.236567        -1.970851
 H         1.890587         1.767991        -1.150676
 H         4.475658         1.655958        -0.025854
 H         3.052303         1.114985         2.295548
 H         5.266208        -0.099458         1.626241
 H         2.864427        -1.928662        -0.569154
 H         2.016816        -1.874360         1.057722
