19
Iteration:  4291charge 0 multiplicity 1
 C         0.244845        -0.401854        -0.870618
 C         1.566380        -0.109602        -0.285434
 C         2.471977         0.968244        -0.977161
 C         3.514482         1.085050         0.118692
 C         2.686342         0.811902         1.359920
 O         1.355014         0.513614         1.032018
 C         3.517340        -0.275732         0.860467
 O         4.749048        -0.728041         1.605157
 C         2.542817        -1.249470         0.159801
 H        -0.397350        -1.034902        -0.170522
 H        -0.313481         0.614326        -0.797245
 H         0.340494        -0.911865        -1.835921
 H         2.857892         0.620289        -1.959849
 H         1.840734         1.816889        -1.100650
 H         4.366603         1.660214         0.130818
 H         2.793895         1.241483         2.329842
 H         4.856209        -1.689560         1.586828
 H         3.030833        -1.701012        -0.735593
 H         1.969389        -1.885069         0.901405
