19
Iteration:  3894charge 0 multiplicity 1
 C         0.194514        -0.379130        -0.807925
 C         1.555978        -0.101060        -0.248546
 C         2.438213         0.959545        -1.004362
 C         3.498452         1.031972         0.082195
 C         2.710451         0.791727         1.355355
 O         1.413533         0.432856         1.072516
 C         3.549410        -0.247137         0.861996
 O         4.690774        -0.747922         1.609086
 C         2.633555        -1.168165         0.038253
 H        -0.233562         0.443682        -1.410018
 H         0.107652        -1.180553        -1.557415
 H        -0.552886        -0.603774         0.060457
 H         2.923305         0.785532        -1.981526
 H         1.949677         2.051909        -0.963958
 H         4.451400         1.642795         0.194749
 H         2.787161         1.378737         2.217969
 H         4.285293        -1.414252         2.274236
 H         3.048311        -1.568598        -0.908891
 H         2.141366        -1.912798         0.775290
