19
Iteration:   989charge 0 multiplicity 1
 C         0.154864        -0.513243        -0.708133
 C         1.531766        -0.087990        -0.170647
 C         2.489951         0.775190        -1.099691
 C         3.558767         1.037505        -0.076632
 C         2.750677         0.908266         1.241866
 O         1.339731         0.787254         0.997687
 C         3.654690        -0.278626         0.880681
 O         4.742430        -0.857004         1.503325
 C         2.480267        -1.178229         0.400264
 H        -0.664559        -0.621204         0.018164
 H        -0.162888         0.204776        -1.566880
 H         0.353103        -1.434044        -1.176616
 H         2.848532         0.235136        -1.943585
 H         2.024781         1.724909        -1.479339
 H         4.355788         1.798502        -0.074076
 H         3.041595         1.488853         2.154030
 H         4.389833        -1.375291         2.293597
 H         2.561286        -2.009758        -0.266187
 H         2.030241        -1.603521         1.335472
