19
Iteration:  4333
 C         0.226918        -0.412377        -0.880285
 C         1.588308        -0.092172        -0.261359
 C         2.473012         0.872465        -1.025851
 C         3.502551         1.082688         0.084781
 C         2.789646         0.826091         1.337207
 O         1.367054         0.565269         1.119017
 C         3.516637        -0.312329         0.935630
 O         4.635676        -0.746039         1.681109
 C         2.529040        -1.187874         0.102964
 H         0.013800        -1.531464        -0.968571
 H        -0.678718        -0.112100        -0.255473
 H         0.130963        -0.053390        -1.903459
 H         2.885392         0.429571        -1.929881
 H         1.922950         1.860951        -1.380270
 H         4.359818         1.614541        -0.090678
 H         2.978751         1.374212         2.235531
 H         5.341386        -1.068443         1.137432
 H         2.958110        -1.634395        -0.834209
 H         2.065004        -2.062735         0.617006
