19
Iteration:  3624
 C         0.162749        -0.353292        -0.784690
 C         1.487147        -0.100414        -0.299365
 C         2.599559         0.880587        -1.040441
 C         3.521573         1.103490         0.145654
 C         2.648708         0.819889         1.418102
 O         1.365109         0.553243         1.051502
 C         3.506389        -0.257050         0.792112
 O         4.744975        -0.720793         1.610189
 C         2.604358        -1.263321         0.090688
 H        -0.258649         0.386261        -1.432131
 H         0.080010        -1.385740        -1.336822
 H        -0.637448        -0.537343        -0.015805
 H         2.952639         0.251842        -1.997910
 H         2.134678         1.713364        -1.504154
 H         4.457904         1.496578         0.107895
 H         2.814516         1.312399         2.441961
 H         4.534865        -1.434064         2.163716
 H         3.127809        -1.807669        -0.704601
 H         2.206532        -2.025030         0.757459
