19
Iteration:  2604
 C         0.176016        -0.642362        -0.861157
 C         1.555239        -0.019429        -0.237701
 C         2.544410         0.867822        -1.019834
 C         3.571649         1.067656         0.053392
 C         2.720753         0.872009         1.372004
 O         1.284444         0.707911         1.026485
 C         3.641323        -0.223206         0.837026
 O         4.593029        -0.927812         1.569617
 C         2.568747        -1.122768         0.204506
 H        -0.614326        -0.122284        -0.468103
 H         0.199054        -0.461537        -1.981787
 H         0.067823        -1.631878        -0.469627
 H         2.898284         0.341495        -1.913863
 H         2.300326         1.854834        -1.307723
 H         4.337150         1.706911         0.153967
 H         2.867724         1.330040         2.341696
 H         4.823326        -0.356406         2.275215
 H         3.042681        -1.744142        -0.569609
 H         2.232090        -1.755958         1.148626
