19
Iteration:  4019
 C         0.173340        -0.433004        -0.819594
 C         1.562150        -0.095579        -0.210373
 C         2.576531         1.000094        -1.021267
 C         3.543751         1.026897         0.093887
 C         2.699586         0.787489         1.397144
 O         1.361429         0.505329         1.081445
 C         3.531844        -0.287860         0.883032
 O         4.692275        -0.713409         1.594729
 C         2.529717        -1.197021         0.000340
 H        -0.618460         0.092238        -0.247521
 H         0.085173        -0.353614        -1.926180
 H        -0.063576        -1.435490        -0.585226
 H         2.866558         0.397310        -2.004578
 H         2.087290         1.931077        -1.122475
 H         4.374210         1.843293         0.129555
 H         2.835006         1.367794         2.256544
 H         4.495756        -1.476437         2.236529
 H         3.029580        -1.294748        -0.957672
 H         2.186314        -2.113399         0.457502
