19
Iteration:   867
 C         0.159825        -0.636904        -0.638013
 C         1.467455        -0.024840        -0.141631
 C         2.523205         0.740636        -1.127724
 C         3.584981         0.892525        -0.021794
 C         2.804272         1.054692         1.275007
 O         1.411377         0.923889         0.985770
 C         3.513568        -0.337319         0.929265
 O         4.687706        -0.813631         1.545310
 C         2.460118        -1.160936         0.268167
 H        -0.151992        -1.420803         0.020410
 H        -0.648977         0.077380        -0.821453
 H         0.438817        -1.132209        -1.622105
 H         2.861717         0.139028        -1.896586
 H         2.104938         1.734548        -1.608747
 H         4.565175         1.466841        -0.169644
 H         3.233350         1.713776         1.996396
 H         4.412057        -1.722255         1.880132
 H         2.867920        -1.643253        -0.652530
 H         2.107759        -2.053128         0.790911
