19
Iteration:  1180charge 0 multiplicity 1
 C         0.086226        -0.559681        -0.702823
 C         1.499221        -0.061226        -0.183428
 C         2.458899         0.740943        -1.130167
 C         3.555432         0.971755        -0.032807
 C         2.868235         0.956911         1.289837
 O         1.449968         0.820421         1.039076
 C         3.566168        -0.299308         0.968008
 O         4.650753        -0.821908         1.682690
 C         2.458400        -1.154719         0.177239
 H        -0.567216        -0.620465         0.151246
 H        -0.319217         0.205782        -1.380955
 H         0.355061        -1.483881        -1.397267
 H         2.796665         0.029344        -2.022743
 H         1.853857         1.474683        -1.535545
 H         4.427771         1.567746        -0.253929
 H         3.133325         1.558035         2.150970
 H         5.381951        -0.922365         1.092439
 H         2.791456        -1.648330        -0.823500
 H         2.159488        -2.023084         0.785059
