19
Iteration:  2162
 C         0.160760        -0.347520        -0.740102
 C         1.563586        -0.142962        -0.241089
 C         2.487201         0.835116        -1.051084
 C         3.499694         1.045820         0.068964
 C         2.704080         0.731941         1.415675
 O         1.381017         0.606656         0.963756
 C         3.628368        -0.239786         0.783727
 O         4.674490        -0.650400         1.601010
 C         2.580721        -1.240478         0.195541
 H         0.178420        -1.262552        -1.466766
 H        -0.446520        -0.568406         0.135749
 H        -0.170754         0.501766        -1.305126
 H         2.949752         0.277479        -1.807622
 H         1.755197         1.737355        -1.310127
 H         4.320085         1.662290         0.052475
 H         2.914339         1.200001         2.395879
 H         4.689678        -1.676978         1.674033
 H         2.855931        -1.825988        -0.734455
 H         2.113824        -1.802238         1.078439
