19
Iteration:  1859
 C         0.125721        -0.461601        -0.787073
 C         1.561544        -0.148343        -0.227364
 C         2.524937         0.860845        -0.984009
 C         3.541403         1.002770         0.079929
 C         2.710876         0.897138         1.356315
 O         1.351363         0.663247         0.979045
 C         3.575476        -0.283377         0.873752
 O         4.794925        -0.781486         1.399229
 C         2.474629        -1.183526         0.290203
 H        -0.569943        -0.631153         0.070548
 H        -0.426585         0.311233        -1.285395
 H         0.137743        -1.286183        -1.446977
 H         2.992158         0.443032        -2.000514
 H         1.998403         1.755334        -1.076096
 H         4.521559         1.632170        -0.030166
 H         2.828947         1.508374         2.263361
 H         4.698264        -1.161315         2.322397
 H         2.786156        -1.971136        -0.370764
 H         2.060936        -1.672913         1.199141
