19
Iteration:  4140
 C         0.201623        -0.477484        -0.846927
 C         1.559001        -0.093409        -0.275874
 C         2.589191         1.051262        -0.935592
 C         3.529234         1.080242         0.211400
 C         2.644606         0.786016         1.455343
 O         1.275440         0.513499         1.019682
 C         3.479354        -0.283626         0.911053
 O         4.756973        -0.763664         1.380039
 C         2.633761        -1.185394         0.118626
 H        -0.209462         0.359704        -1.401641
 H         0.273620        -1.381134        -1.441952
 H        -0.511848        -0.700839        -0.098202
 H         2.785001         0.761684        -2.055396
 H         2.042566         1.944269        -0.972382
 H         4.206169         1.837364         0.460848
 H         2.925022         1.179269         2.464815
 H         4.693058        -1.618754         1.814587
 H         3.049104        -1.774921        -0.681196
 H         2.126030        -1.893277         0.783338
