19
Iteration:  1018charge 0 multiplicity 1
 C         0.198863        -0.584221        -0.592482
 C         1.540565        -0.081330        -0.212090
 C         2.458696         0.745387        -1.058304
 C         3.548076         0.915545        -0.042555
 C         2.834688         1.020420         1.319616
 O         1.468717         0.801463         0.977000
 C         3.510576        -0.234231         0.977447
 O         4.572264        -0.769500         1.510430
 C         2.542729        -1.162495         0.223474
 H        -0.610789        -0.686319         0.066687
 H        -0.250962        -0.132668        -1.488710
 H         0.484175        -1.585287        -1.213182
 H         2.772497         0.186866        -1.970092
 H         2.072045         1.785437        -1.384591
 H         4.481854         1.187534        -0.204520
 H         3.089365         1.701066         2.176427
 H         4.413122        -1.749348         1.624620
 H         2.828284        -1.639470        -0.790837
 H         1.994365        -1.752087         0.937959
