19
Iteration:  4908charge 0 multiplicity 1
 C         0.170296        -0.596010        -0.723423
 C         1.555839        -0.115014        -0.184230
 C         2.650586         0.908877        -1.069800
 C         3.623066         0.953930         0.067856
 C         2.676232         0.954268         1.404440
 O         1.354094         0.736831         0.948902
 C         3.500522        -0.222379         0.956753
 O         4.657321        -0.865233         1.425575
 C         2.471089        -1.149280         0.212046
 H         0.099165        -1.624151        -0.446996
 H        -0.609458        -0.038715        -0.219185
 H         0.062489        -0.380491        -1.800759
 H         3.113815         0.368929        -2.023458
 H         2.241239         1.858146        -1.110565
 H         4.579196         1.651181         0.103037
 H         2.700686         1.729139         2.140630
 H         4.438995        -1.504140         2.134869
 H         2.960210        -1.682373        -0.650645
 H         1.996845        -1.890373         0.841417
