19
Iteration:  2299
 C         0.131080        -0.412052        -0.830682
 C         1.572636        -0.098325        -0.259751
 C         2.471740         0.825811        -1.055037
 C         3.546200         1.002112         0.072403
 C         2.727563         0.810120         1.392941
 O         1.358638         0.665819         1.012386
 C         3.588703        -0.271223         0.909339
 O         4.698016        -0.765026         1.618111
 C         2.569556        -1.285887         0.158275
 H        -0.257425         0.393300        -1.462807
 H         0.062002        -1.380249        -1.494112
 H        -0.680164        -0.506513         0.023155
 H         2.817522         0.356596        -2.077390
 H         2.015017         1.744537        -1.214272
 H         4.355910         1.623314        -0.069302
 H         2.779636         1.362359         2.345793
 H         5.053472         0.074028         1.954933
 H         3.027872        -1.767685        -0.709651
 H         2.169662        -1.923675         0.898757
