19
Iteration:  4534
 C         0.323238        -0.517686        -1.028603
 C         1.503720        -0.118983        -0.211697
 C         2.459794         0.869647        -0.977889
 C         3.570043         0.959253         0.043685
 C         2.723289         0.922249         1.367831
 O         1.427262         0.747543         1.118610
 C         3.504508        -0.283376         0.923843
 O         4.721430        -0.837236         1.479589
 C         2.404622        -1.237074         0.301191
 H         0.423308        -0.180725        -2.085252
 H         0.084074        -1.563992        -1.070052
 H        -0.681680        -0.204271        -0.649797
 H         2.541403         0.524660        -2.149991
 H         1.945850         1.823636        -0.987727
 H         4.436647         1.573557         0.024974
 H         3.091958         1.763169         2.037829
 H         4.832167        -0.650240         2.462571
 H         2.810439        -1.957112        -0.368211
 H         1.807654        -1.583406         1.125541
