19
Iteration:  4686
 C         0.186600        -0.333072        -0.844885
 C         1.559879        -0.096604        -0.201943
 C         2.587751         0.800004        -0.952954
 C         3.477337         1.083197         0.212253
 C         2.626671         0.929485         1.392784
 O         1.306174         0.622540         0.936531
 C         3.590414        -0.305003         0.871765
 O         4.746223        -0.869890         1.367098
 C         2.560574        -1.276259         0.296779
 H        -0.117574        -1.417019        -0.856972
 H        -0.514068         0.231482        -0.264241
 H         0.285078        -0.125512        -1.923800
 H         2.915333         0.223543        -1.905070
 H         2.125683         1.719243        -1.358156
 H         4.385828         1.829280         0.275318
 H         2.598511         1.701999         2.154832
 H         4.808763        -0.654127         2.296807
 H         2.859551        -1.803065        -0.613876
 H         2.281472        -2.133216         0.975422
