19
Iteration:  1805
 C         0.159535        -0.559738        -0.853594
 C         1.516815        -0.052581        -0.168150
 C         2.501500         0.792624        -1.055058
 C         3.558336         1.054078         0.005632
 C         2.825248         0.992744         1.318366
 O         1.419093         0.667914         1.101459
 C         3.575638        -0.240287         0.802841
 O         4.640346        -0.858450         1.589228
 C         2.440624        -1.149454         0.308875
 H        -0.140030        -1.590732        -0.393532
 H        -0.733302         0.011801        -0.668427
 H         0.146612        -0.641869        -1.956020
 H         2.830390         0.082117        -1.940348
 H         2.042458         1.657733        -1.384493
 H         4.400689         1.851339        -0.040244
 H         3.020186         1.571472         2.236855
 H         5.405017        -1.087094         0.951474
 H         2.726406        -1.915615        -0.371939
 H         1.955776        -1.693019         1.146854
