19
Iteration:  1999
 C         0.222672        -0.390102        -0.825527
 C         1.514767        -0.090450        -0.231853
 C         2.460883         0.875263        -1.042853
 C         3.483825         0.973328         0.061622
 C         2.716876         0.920942         1.353742
 O         1.342476         0.576764         1.049494
 C         3.595286        -0.288748         0.941174
 O         4.780163        -0.841349         1.464927
 C         2.512455        -1.209217         0.256255
 H        -0.258140        -1.454287        -0.484214
 H        -0.573864         0.396256        -0.515638
 H         0.321089        -0.382084        -1.910610
 H         2.796707         0.280905        -1.995050
 H         1.884703         1.814043        -1.188872
 H         4.396828         1.615465        -0.069470
 H         2.775798         1.600457         2.177703
 H         5.200888        -0.199126         2.138659
 H         2.982823        -1.782411        -0.588392
 H         1.969409        -1.915130         0.983133
