19
Iteration:   973charge 0 multiplicity 1
 C         0.179652        -0.429631        -0.782288
 C         1.506763        -0.114953        -0.213428
 C         2.451173         0.695688        -1.060321
 C         3.510118         0.943932         0.046411
 C         2.802821         0.952463         1.378287
 O         1.434921         0.760823         0.943682
 C         3.551661        -0.311193         0.802821
 O         4.783113        -0.767584         1.461073
 C         2.430769        -1.220688         0.414268
 H        -0.492741        -0.559140         0.083869
 H        -0.278420         0.375631        -1.289150
 H         0.083078        -1.317753        -1.520605
 H         2.870051         0.132597        -1.967340
 H         1.943747         1.603985        -1.367400
 H         4.431851         1.522927        -0.176310
 H         2.898143         1.619374         2.203857
 H         4.597882        -0.706848         2.447254
 H         2.897247        -1.968881        -0.299375
 H         1.910644        -1.538671         1.301090
