19
Iteration:  1214
 C         0.149758        -0.357442        -0.698004
 C         1.578210        -0.210550        -0.237967
 C         2.479233         0.812655        -1.100061
 C         3.595698         0.952945        -0.090540
 C         2.790867         0.838792         1.333305
 O         1.388401         0.675691         0.995273
 C         3.569011        -0.335259         0.817593
 O         4.629564        -0.617127         1.589341
 C         2.485544        -1.234306         0.389773
 H        -0.545718        -0.314273         0.097629
 H        -0.052569         0.413083        -1.522426
 H        -0.098722        -1.396907        -1.234434
 H         2.646485         0.444835        -2.202632
 H         1.904772         1.727936        -1.095439
 H         4.613223         1.536672         0.032536
 H         3.229275         1.273973         2.192480
 H         5.106372        -1.390364         1.378826
 H         2.502815        -2.034574        -0.441113
 H         2.165033        -1.552785         1.400881
