19
Iteration:    99
 C         0.049459        -0.320318        -0.816716
 C         1.496216        -0.188874        -0.208837
 C         2.509351         0.607384        -1.047898
 C         3.590850         0.842624        -0.051268
 C         2.797798         0.893236         1.330360
 O         1.418582         0.805857         1.058132
 C         3.537444        -0.336205         0.917803
 O         4.794259        -0.542141         1.527898
 C         2.425580        -1.317319         0.263368
 H        -0.571224        -0.717394        -0.058611
 H        -0.241896         0.729272        -1.000911
 H        -0.065595        -1.004111        -1.585938
 H         2.902490        -0.035342        -1.832526
 H         2.085076         1.556847        -1.415500
 H         4.503786         1.185367        -0.369838
 H         3.138132         1.614271         2.157672
 H         4.556319        -0.462364         2.462612
 H         2.885782        -1.965989        -0.419306
 H         2.063955        -2.037757         0.971346
