19
Iteration:   939
 C         0.161826        -0.322034        -0.732422
 C         1.492267        -0.070221        -0.121150
 C         2.524247         0.638540        -1.113974
 C         3.528161         0.758908        -0.044471
 C         2.767576         0.989817         1.305396
 O         1.367118         0.732895         1.032892
 C         3.542672        -0.356243         0.911607
 O         4.766095        -0.622475         1.452306
 C         2.462916        -1.248953         0.326465
 H        -0.388889        -1.158237        -0.182656
 H        -0.364916         0.580554        -0.685043
 H         0.314561        -0.643083        -1.793721
 H         2.889494        -0.055431        -1.990714
 H         2.299022         1.573757        -1.543569
 H         4.540213         1.311518         0.048948
 H         2.836623         1.744422         2.059522
 H         4.542716        -0.616839         2.399674
 H         2.918692        -1.888494        -0.487543
 H         2.063783        -2.045891         0.961131
