19
Iteration:  2779
 C         0.302207        -0.540632        -0.881753
 C         1.597440        -0.158958        -0.233695
 C         2.472630         0.892082        -1.004626
 C         3.527789         1.045517         0.125944
 C         2.734565         0.907229         1.376520
 O         1.355629         0.729895         0.967743
 C         3.522001        -0.296215         0.909422
 O         4.630071        -0.837105         1.474697
 C         2.494756        -1.183631         0.273577
 H        -0.235445         0.444299        -1.199515
 H         0.504756        -1.346655        -1.737871
 H        -0.195234        -1.152583        -0.121725
 H         2.955414         0.617139        -2.018044
 H         1.913847         1.836675        -1.146049
 H         4.480606         1.756559         0.028530
 H         2.971925         1.413048         2.298056
 H         4.533865        -0.872416         2.415418
 H         2.987075        -1.825609        -0.422315
 H         2.029743        -1.897467         0.963816
