19
Iteration:  2579
 C         0.265337        -0.422444        -0.845662
 C         1.654806        -0.157515        -0.220096
 C         2.472731         0.798688        -1.026581
 C         3.454576         1.037708         0.087532
 C         2.713526         0.935874         1.352074
 O         1.391720         0.650224         0.988903
 C         3.495166        -0.321999         0.972545
 O         4.645141        -0.776385         1.557126
 C         2.540583        -1.278938         0.124444
 H        -0.417983         0.387853        -0.480794
 H         0.335553        -0.383908        -1.966049
 H        -0.153044        -1.354593        -0.295973
 H         2.826706         0.470498        -1.926850
 H         1.922027         1.786926        -1.206558
 H         4.484570         1.507903         0.332577
 H         2.749966         1.511928         2.282759
 H         4.889586        -0.060315         2.170478
 H         3.080201        -1.682608        -0.745404
 H         2.068253        -2.027901         0.695259
