19
Iteration:  3040
 C         0.288016        -0.646582        -0.838396
 C         1.557523        -0.071298        -0.245524
 C         2.524466         0.866990        -0.980660
 C         3.565541         1.100624         0.165044
 C         2.759731         0.890930         1.392681
 O         1.377173         0.754905         1.021214
 C         3.494410        -0.286225         0.838475
 O         4.608833        -0.834232         1.474225
 C         2.493094        -1.157660         0.182465
 H        -0.412237         0.202796        -1.000380
 H         0.670255        -1.091645        -1.823890
 H        -0.222399        -1.374805        -0.277403
 H         3.028446         0.377935        -1.776810
 H         2.160636         1.833882        -1.355579
 H         4.365872         1.714600         0.109281
 H         2.828684         1.378903         2.372175
 H         4.359802        -1.219923         2.339928
 H         2.835853        -1.819778        -0.685832
 H         1.952708        -1.845613         0.928880
