19
Iteration:  3617charge 0 multiplicity 1
 C         0.157770        -0.409943        -0.789736
 C         1.554888        -0.153524        -0.283675
 C         2.551810         0.916329        -1.065375
 C         3.512047         1.070249         0.131396
 C         2.656020         0.827554         1.399208
 O         1.355617         0.630024         1.054456
 C         3.581788        -0.301250         0.807251
 O         4.685138        -0.735386         1.589253
 C         2.636728        -1.273063         0.106334
 H        -0.303859         0.438547        -1.349256
 H         0.035684        -1.234953        -1.469158
 H        -0.492585        -0.522767         0.028752
 H         2.955413         0.306692        -1.837914
 H         2.082442         1.951751        -1.306786
 H         4.459886         1.818185         0.178398
 H         2.762415         1.140603         2.431784
 H         4.389836        -1.366547         2.288460
 H         3.021944        -1.743281        -0.847211
 H         2.165499        -1.975212         0.846447
