19
Iteration:   104
 C         0.007269        -0.328305        -0.818803
 C         1.490170        -0.180452        -0.212276
 C         2.530123         0.640262        -1.077432
 C         3.580258         0.770673        -0.046020
 C         2.796666         0.888994         1.336645
 O         1.393840         0.769593         1.080272
 C         3.584144        -0.314367         0.899472
 O         4.836818        -0.536256         1.550448
 C         2.392271        -1.272565         0.278888
 H        -0.629865        -0.582789         0.103371
 H        -0.356612         0.653487        -1.221428
 H        -0.066401        -1.078069        -1.711158
 H         2.934625         0.065063        -1.953335
 H         2.144587         1.613196        -1.491248
 H         4.696357         1.126949        -0.322383
 H         3.103410         1.556922         2.067777
 H         4.491967        -0.465950         2.465962
 H         2.958172        -1.889932        -0.524401
 H         2.005170        -1.936404         1.100300
