19
Iteration:  1411
 C         0.189978        -0.543949        -0.716925
 C         1.492516        -0.016474        -0.157759
 C         2.466065         0.704549        -1.096708
 C         3.597275         0.971155         0.022927
 C         2.799905         0.919843         1.364906
 O         1.378704         0.828041         0.986215
 C         3.536120        -0.292778         0.903268
 O         4.743569        -0.776435         1.392288
 C         2.437742        -1.187178         0.362199
 H        -0.734303        -0.581872        -0.149752
 H        -0.077457         0.113351        -1.632174
 H         0.408381        -1.483751        -1.129588
 H         2.784130         0.073657        -1.995989
 H         2.073959         1.611343        -1.477434
 H         4.469830         1.523110        -0.110173
 H         2.982878         1.578598         2.215315
 H         4.599512        -1.310696         2.178781
 H         2.781651        -1.914560        -0.378058
 H         2.060499        -1.843712         1.165831
