19
Iteration:  3574charge 0 multiplicity 1
 C         0.301860        -0.606236        -0.933904
 C         1.506296         0.022552        -0.255347
 C         2.508045         0.988371        -1.043872
 C         3.541414         0.985325         0.091966
 C         2.774460         0.921472         1.388734
 O         1.325897         0.653531         1.135489
 C         3.475721        -0.312196         0.891731
 O         4.671662        -0.875564         1.488334
 C         2.545323        -1.201029         0.233877
 H        -0.538634         0.158929        -0.900341
 H         0.380132        -0.850786        -1.977902
 H        -0.190211        -1.446256        -0.494391
 H         2.930957         0.599926        -1.900360
 H         1.884782         1.919254        -1.307488
 H         4.456260         1.740640         0.028569
 H         3.174423         1.439021         2.282518
 H         4.726798        -0.744037         2.500432
 H         2.992809        -1.746665        -0.640174
 H         1.920382        -1.857699         0.880592
