19
Iteration:  1853charge 0 multiplicity 1
 C         0.221565        -0.464227        -0.756749
 C         1.550223        -0.153156        -0.210100
 C         2.479505         0.867923        -0.969716
 C         3.553087         0.977146         0.108479
 C         2.709427         0.910789         1.352653
 O         1.333032         0.722029         0.955606
 C         3.539598        -0.340997         0.861052
 O         4.809680        -0.768994         1.393237
 C         2.492159        -1.196590         0.307936
 H        -0.445866        -0.782024         0.041636
 H        -0.366406         0.362426        -1.245882
 H         0.296674        -1.298595        -1.580143
 H         2.821599         0.426211        -1.830049
 H         1.976461         1.898869        -1.140306
 H         4.353302         1.628083        -0.096470
 H         2.783159         1.665010         2.118615
 H         4.588275        -1.381727         2.078280
 H         2.706558        -1.989171        -0.451763
 H         2.001516        -1.743769         1.124871
