19
Iteration:  3913
 C         0.223080        -0.357430        -0.828879
 C         1.588258        -0.072769        -0.316701
 C         2.460448         0.924915        -0.947060
 C         3.545749         1.074753         0.133680
 C         2.698665         0.796924         1.417842
 O         1.303840         0.507207         1.060446
 C         3.585929        -0.307735         0.810902
 O         4.708199        -0.682186         1.539460
 C         2.592417        -1.300333         0.134860
 H        -0.246574         0.559069        -1.179959
 H        -0.021290        -0.823704        -1.791905
 H        -0.427147        -0.834321        -0.088046
 H         2.762164         0.562267        -1.875548
 H         1.912375         1.821740        -1.187462
 H         4.340299         1.931230        -0.016108
 H         2.877578         1.128426         2.397295
 H         4.540338        -1.508706         2.087738
 H         3.106964        -1.815011        -0.682008
 H         2.169502        -2.079702         0.812249
