19
Iteration:  1829
 C         0.299716        -0.545555        -0.818947
 C         1.512944        -0.085433        -0.107702
 C         2.490631         0.797761        -1.082057
 C         3.513791         0.966345         0.026308
 C         2.774264         0.935990         1.388186
 O         1.369267         0.839942         1.093018
 C         3.435971        -0.309722         0.914841
 O         4.719053        -0.763190         1.422440
 C         2.479908        -1.184981         0.299628
 H        -0.144853        -1.437923        -0.291176
 H        -0.544354         0.052074        -1.064933
 H         0.698506        -0.952013        -1.843138
 H         2.781663         0.210296        -1.962273
 H         1.970761         1.739771        -1.326793
 H         4.531943         1.516245        -0.144920
 H         3.006950         1.431576         2.327455
 H         4.781186        -1.731412         1.185025
 H         2.851857        -1.704370        -0.583643
 H         2.101833        -1.987172         0.951842
