19
Iteration:   287charge 0 multiplicity 1
 C         0.196326        -0.493929        -0.669880
 C         1.573892        -0.105836        -0.221206
 C         2.496158         0.739031        -1.099665
 C         3.552652         0.854864        -0.032402
 C         2.809202         0.925291         1.262095
 O         1.441462         0.911399         0.868100
 C         3.510490        -0.319529         0.907386
 O         4.703759        -0.738228         1.529308
 C         2.410704        -1.263513         0.422906
 H        -0.062238        -1.427083        -0.142450
 H        -0.488410         0.307275        -0.302273
 H         0.074603        -0.621792        -1.735965
 H         2.769566         0.208711        -1.971938
 H         1.898304         1.717686        -1.275524
 H         4.456525         1.464863        -0.167454
 H         3.038718         1.674118         2.068567
 H         4.430900        -1.128972         2.402584
 H         2.651227        -2.003585        -0.325791
 H         1.860245        -1.748289         1.179558
