19
Iteration:  2215
 C         0.296536        -0.572558        -0.842385
 C         1.540515        -0.070282        -0.192724
 C         2.426301         0.868395        -0.973101
 C         3.526949         0.982813         0.057661
 C         2.717420         0.890229         1.335819
 O         1.337453         0.803538         0.992512
 C         3.544797        -0.276555         0.942698
 O         4.632122        -0.899812         1.543417
 C         2.580536        -1.197664         0.210720
 H         0.336389        -0.455118        -1.927315
 H         0.134655        -1.597829        -0.559094
 H        -0.538366        -0.059164        -0.504818
 H         2.763422         0.455629        -1.901333
 H         1.796295         1.918740        -1.045953
 H         4.281190         1.675408         0.016422
 H         3.037636         1.369151         2.277719
 H         5.454482        -0.321549         1.291446
 H         2.955108        -1.750445        -0.720167
 H         2.200182        -1.946708         0.967588
