19
Iteration:  4918charge 0 multiplicity 1
 C         0.210509        -0.600375        -0.790320
 C         1.519891        -0.049554        -0.257783
 C         2.567593         0.851880        -0.978282
 C         3.587347         0.978540         0.153876
 C         2.694243         0.980456         1.340716
 O         1.358610         0.781266         0.975299
 C         3.508014        -0.328005         0.938105
 O         4.690525        -0.837051         1.423530
 C         2.500583        -1.131001         0.263245
 H         0.087634        -1.653442        -0.626251
 H        -0.640597        -0.125963        -0.296862
 H         0.107104        -0.450347        -1.871893
 H         2.936297         0.442292        -1.995270
 H         2.178817         1.751298        -1.348621
 H         4.662334         1.360521        -0.085770
 H         2.920245         1.522262         2.246758
 H         4.634347        -1.592278         1.989358
 H         2.806127        -1.834170        -0.552440
 H         2.000520        -1.699013         1.052286
