19
Iteration:  4716charge 0 multiplicity 1
 C         0.171257        -0.333691        -0.870865
 C         1.586595        -0.064457        -0.318660
 C         2.513110         0.870199        -1.116349
 C         3.533229         1.059400         0.091497
 C         2.745302         0.827783         1.402620
 O         1.368695         0.556105         1.149254
 C         3.524420        -0.346169         0.855140
 O         4.693041        -0.760338         1.583336
 C         2.540441        -1.270575         0.168009
 H        -0.183463        -1.215574        -0.271585
 H        -0.386183         0.577254        -0.626230
 H         0.162828        -0.563911        -1.990496
 H         2.676909         0.230975        -1.915482
 H         1.847529         1.846303        -1.255939
 H         4.546594         1.473390        -0.114690
 H         2.926354         1.392205         2.366242
 H         4.520237        -0.368912         2.468854
 H         2.971855        -1.658351        -0.797944
 H         2.098256        -2.119044         0.810177
