19
Iteration:   247
 C         0.134432        -0.213360        -0.765519
 C         1.494179        -0.080467        -0.184972
 C         2.479119         0.508490        -1.177905
 C         3.520177         0.870203        -0.172181
 C         2.771706         0.884157         1.298932
 O         1.390379         0.648562         1.066712
 C         3.566969        -0.291886         0.944689
 O         4.769694        -0.666543         1.601919
 C         2.493769        -1.180941         0.380068
 H        -0.393819        -1.113974        -0.289390
 H        -0.412789         0.621777        -0.512025
 H         0.152315        -0.007883        -1.894379
 H         2.787066        -0.314101        -1.891957
 H         2.372671         1.288445        -1.886394
 H         4.197598         1.594888        -0.268615
 H         3.018138         1.885154         1.763017
 H         4.609987        -0.746595         2.546193
 H         3.082227        -1.808892        -0.397292
 H         2.041685        -1.826062         1.187754
