19
Iteration:  4250
 C         0.289166        -0.568520        -0.879389
 C         1.561348        -0.096879        -0.183672
 C         2.563700         0.934624        -0.906313
 C         3.553693         1.141206         0.266759
 C         2.582627         0.903473         1.461099
 O         1.248985         0.663929         1.007735
 C         3.579818        -0.306189         0.860827
 O         4.762872        -0.809634         1.293238
 C         2.506689        -1.190602         0.180632
 H        -0.548920        -0.531039        -0.226832
 H         0.192171         0.107539        -1.718124
 H         0.418256        -1.616222        -1.254576
 H         3.030110         0.294602        -1.766377
 H         2.107648         1.814802        -1.231932
 H         4.484247         1.798824         0.311960
 H         2.665747         0.970353         2.537872
 H         4.422772        -1.562301         1.911399
 H         2.870261        -1.456872        -0.820041
 H         2.060036        -2.043585         0.767573
