19
Iteration:  4659charge 0 multiplicity 1
 C         0.300561        -0.576000        -0.947115
 C         1.551023        -0.056823        -0.263811
 C         2.533396         0.898737        -0.961622
 C         3.478551         0.949861         0.145388
 C         2.714695         0.865169         1.466625
 O         1.364179         0.728775         1.038889
 C         3.504200        -0.276942         0.943142
 O         4.759213        -0.831258         1.329621
 C         2.438201        -1.120834         0.310153
 H         0.230092        -1.638411        -1.141381
 H        -0.601981        -0.241848        -0.341677
 H         0.296975        -0.090603        -1.938704
 H         2.834573         0.460597        -1.882369
 H         2.184144         1.932652        -1.355975
 H         4.238529         1.649365         0.102411
 H         2.875733         1.463775         2.364300
 H         4.616257        -1.217805         2.211359
 H         2.749226        -1.938321        -0.394397
 H         1.895535        -1.693291         1.092515
