19
Iteration:  3101charge 0 multiplicity 1
 C         0.221002        -0.288263        -0.896219
 C         1.524279        -0.143749        -0.213082
 C         2.487521         0.775715        -1.024519
 C         3.466155         1.009888         0.087500
 C         2.682620         0.803205         1.399981
 O         1.378750         0.662586         1.014385
 C         3.521385        -0.395545         0.900770
 O         4.727661        -0.616801         1.550570
 C         2.592025        -1.323644         0.222512
 H        -0.356056         0.590253        -0.631680
 H         0.370253        -0.133967        -1.984284
 H        -0.332782        -1.305355        -0.747855
 H         3.059984         0.240187        -1.862606
 H         2.085626         1.772864        -1.440751
 H         4.412093         1.464894        -0.050874
 H         2.837460         1.337913         2.390789
 H         4.506923        -0.918997         2.410365
 H         3.038445        -1.649393        -0.699285
 H         2.272217        -2.139662         0.785719
