19
Iteration:  3966
 C         0.331180        -0.516438        -0.965135
 C         1.574365        -0.069954        -0.233665
 C         2.523396         0.995534        -0.967138
 C         3.465168         1.031760         0.239314
 C         2.658261         0.922429         1.457055
 O         1.300520         0.594370         1.101010
 C         3.523063        -0.324417         0.900629
 O         4.757381        -0.829176         1.279244
 C         2.492193        -1.179697         0.267072
 H        -0.681787        -0.101253        -0.780431
 H         0.471109        -0.265851        -2.057646
 H         0.084274        -1.570519        -0.938051
 H         2.906374         0.354589        -1.853788
 H         2.000952         1.871557        -1.236762
 H         4.511757         1.579704         0.208032
 H         2.822387         1.474209         2.326155
 H         4.809063        -1.169669         2.229957
 H         2.915738        -1.838303        -0.484528
 H         1.958735        -1.645781         1.052685
