19
Iteration:  2719charge 0 multiplicity 1
 C         0.186106        -0.404703        -0.860912
 C         1.516153        -0.171816        -0.251230
 C         2.498350         0.857125        -0.973468
 C         3.566461         1.007216         0.126200
 C         2.687952         0.909423         1.339627
 O         1.329124         0.669120         0.955429
 C         3.507850        -0.314430         0.895268
 O         4.748452        -0.704219         1.567225
 C         2.613702        -1.289616         0.231475
 H        -0.127147         0.360821        -1.557256
 H         0.304551        -1.339184        -1.398992
 H        -0.548945        -0.362398         0.016585
 H         2.827891         0.446017        -1.921168
 H         1.927293         1.857049        -1.227735
 H         4.487840         1.556857         0.142814
 H         2.675745         1.432299         2.274372
 H         4.572068        -1.492588         2.047589
 H         3.033555        -1.659403        -0.748650
 H         2.226811        -2.110882         0.855733
