19
Iteration:  3273charge 0 multiplicity 1
 C         0.313716        -0.466506        -0.940601
 C         1.556755        -0.053756        -0.219571
 C         2.550801         0.872384        -1.006625
 C         3.523421         1.091989         0.125637
 C         2.693788         0.829026         1.397923
 O         1.337782         0.620984         1.058409
 C         3.553105        -0.302754         0.888241
 O         4.688126        -0.771775         1.437021
 C         2.424014        -1.245003         0.257878
 H        -0.521966         0.253862        -0.690774
 H         0.463326        -0.480030        -1.990290
 H        -0.052870        -1.467880        -0.546134
 H         3.178702         0.468265        -1.870312
 H         2.165562         1.754128        -1.362151
 H         4.216490         1.826077         0.142038
 H         2.995825         1.370216         2.276960
 H         4.448234        -0.888043         2.430060
 H         2.790318        -1.917264        -0.540374
 H         2.051160        -1.969402         1.115002
