19
Iteration:  1836
 C         0.337243        -0.549151        -0.802362
 C         1.560370        -0.015868        -0.112688
 C         2.455076         0.813385        -1.055693
 C         3.489271         0.948652         0.028473
 C         2.724371         0.949756         1.370801
 O         1.341483         0.836382         1.037542
 C         3.507355        -0.302276         0.910825
 O         4.739589        -0.769469         1.397158
 C         2.464921        -1.277385         0.311359
 H        -0.314355        -1.180206        -0.146265
 H        -0.471597         0.200968        -1.039011
 H         0.657228        -0.978216        -1.671244
 H         2.809061         0.278901        -2.059916
 H         1.911309         1.706597        -1.193160
 H         4.455376         1.487322         0.116092
 H         3.010541         1.403055         2.333937
 H         4.791974        -1.710740         1.444848
 H         2.921181        -1.756420        -0.559013
 H         2.005888        -2.071119         0.940163
