19
Iteration:  1574
 C         0.217386        -0.567506        -0.695044
 C         1.572292        -0.018662        -0.126463
 C         2.586218         0.777059        -1.074474
 C         3.552491         0.907057        -0.034924
 C         2.824040         0.945204         1.263339
 O         1.376504         0.830940         1.013495
 C         3.528484        -0.335480         0.833421
 O         4.661241        -0.717224         1.441050
 C         2.363367        -1.200194         0.396684
 H         0.032552        -1.623796        -0.380936
 H        -0.664575         0.032192        -0.268104
 H         0.283215        -0.515370        -1.741865
 H         2.968423         0.054428        -1.927445
 H         2.128441         1.600490        -1.518585
 H         4.430365         1.655335        -0.204970
 H         3.034117         1.414313         2.216644
 H         4.566541        -1.618864         1.880759
 H         2.596716        -1.954337        -0.369506
 H         1.829355        -1.696538         1.216143
