19
Iteration:   888
 C         0.241700        -0.554267        -0.624294
 C         1.555245        -0.045303        -0.195625
 C         2.490074         0.728809        -1.094198
 C         3.644833         0.906421        -0.152043
 C         2.778378         1.011308         1.256705
 O         1.394122         0.770625         0.972944
 C         3.527098        -0.241280         0.889952
 O         4.599013        -0.838115         1.573079
 C         2.474005        -1.107994         0.343386
 H         0.058291        -1.424900         0.003447
 H        -0.454510         0.224222        -0.320425
 H         0.114348        -0.820578        -1.751959
 H         2.575967         0.253139        -2.008007
 H         1.987416         1.774238        -1.235004
 H         4.618080         1.461073        -0.327059
 H         2.951191         1.714700         2.049141
 H         4.293042        -1.703308         1.775082
 H         2.973437        -1.905354        -0.261300
 H         1.996959        -1.615661         1.178375
