19
Iteration:  4460charge 0 multiplicity 1
 C         0.122162        -0.401421        -0.713837
 C         1.606285        -0.047016        -0.349220
 C         2.538783         0.838077        -1.053527
 C         3.643205         0.897515         0.082023
 C         2.610680         0.883674         1.356445
 O         1.358562         0.655792         1.001011
 C         3.505292        -0.346672         0.855535
 O         4.701749        -0.624255         1.645406
 C         2.617630        -1.306449         0.137252
 H        -0.163039        -0.061809        -1.724520
 H        -0.123923        -1.431511        -0.654682
 H        -0.579419         0.070158        -0.059760
 H         2.968553         0.354013        -1.876847
 H         2.242557         1.802231        -1.303844
 H         4.606591         1.319498        -0.029834
 H         2.695448         1.516564         2.278472
 H         4.448296        -1.459453         2.132755
 H         2.824611        -1.846553        -0.783039
 H         1.930161        -1.732726         0.831387
