19
Iteration:  1744
 C         0.071265        -0.454263        -0.724079
 C         1.489644        -0.059329        -0.131619
 C         2.597953         0.809293        -1.132039
 C         3.537166         0.931241        -0.029499
 C         2.768036         0.881022         1.336679
 O         1.356186         0.681659         1.058669
 C         3.573915        -0.361797         0.836988
 O         4.755979        -0.726157         1.567583
 C         2.492413        -1.198838         0.191108
 H        -0.416250        -1.051399         0.001752
 H        -0.485098         0.477459        -0.679500
 H         0.208376        -0.915372        -1.783790
 H         2.777307         0.022692        -1.801386
 H         2.281675         1.749126        -1.793962
 H         4.488558         1.580199         0.034866
 H         3.083695         1.471685         2.207378
 H         4.562762        -0.316156         2.444192
 H         2.906107        -1.714904        -0.738724
 H         1.973804        -1.918950         0.847693
