19
Iteration:   965
 C         0.154525        -0.388101        -0.780131
 C         1.546043        -0.170429        -0.230979
 C         2.478601         0.690147        -1.036830
 C         3.562372         0.937376        -0.028809
 C         2.793573         0.953293         1.316893
 O         1.421410         0.771115         1.008559
 C         3.544286        -0.330522         0.942544
 O         4.745886        -0.702083         1.411728
 C         2.400999        -1.262270         0.393133
 H        -0.457835        -0.724006         0.033612
 H        -0.290027         0.562037        -1.240244
 H         0.189786        -1.239844        -1.560256
 H         2.949362         0.241008        -1.814507
 H         1.951837         1.611488        -1.470808
 H         4.489788         1.357294        -0.063269
 H         2.856313         1.558818         2.242409
 H         4.738578        -0.492909         2.383022
 H         2.764625        -1.983955        -0.348924
 H         1.909128        -1.903521         1.126611
