19
Iteration:  1120
 C         0.110988        -0.441412        -0.796102
 C         1.501477        -0.073604        -0.226382
 C         2.538826         0.688348        -1.141821
 C         3.551403         0.885655        -0.022484
 C         2.791418         0.900413         1.365608
 O         1.403233         0.836112         1.024613
 C         3.544953        -0.289108         0.918333
 O         4.721682        -0.780534         1.526982
 C         2.438669        -1.241369         0.416293
 H        -0.249854        -1.409302        -0.320411
 H        -0.753586         0.316021        -0.689509
 H         0.087177        -0.693165        -1.808039
 H         2.901557         0.140732        -1.938382
 H         1.892011         1.573699        -1.527090
 H         4.499513         1.524273        -0.321758
 H         3.026704         1.593906         2.135321
 H         5.500732        -0.266981         1.239094
 H         2.900032        -1.981274        -0.181691
 H         2.001738        -1.591120         1.359096
