19
Iteration:   429
 C         0.133578        -0.510956        -0.721815
 C         1.512694        -0.107986        -0.172888
 C         2.503283         0.696465        -1.083862
 C         3.617233         0.988760        -0.082087
 C         2.828187         1.066283         1.188005
 O         1.425628         0.746938         0.954623
 C         3.556597        -0.222677         0.928769
 O         4.677621        -0.879725         1.517970
 C         2.414826        -1.146833         0.463630
 H        -0.499324        -0.721594         0.184308
 H        -0.312064         0.318638        -1.250823
 H         0.021511        -1.326184        -1.452373
 H         2.847414         0.104386        -1.848342
 H         2.037328         1.670646        -1.464898
 H         4.559514         1.477478        -0.327189
 H         2.985069         1.653493         2.045677
 H         4.476206        -1.348213         2.374171
 H         2.947254        -1.766588        -0.292455
 H         2.030484        -1.846882         1.157431
