19
Iteration:  4235charge 0 multiplicity 1
 C         0.331384        -0.551409        -0.933753
 C         1.571622        -0.047609        -0.213204
 C         2.517045         0.955771        -0.901411
 C         3.443429         1.075740         0.254803
 C         2.655087         0.838336         1.502729
 O         1.293564         0.658038         1.046292
 C         3.530129        -0.295384         0.839671
 O         4.749572        -0.849305         1.314916
 C         2.551958        -1.178356         0.151021
 H        -0.624807        -0.404505        -0.288177
 H         0.077826        -0.156900        -2.015414
 H         0.313032        -1.615647        -1.184765
 H         3.048173         0.743135        -1.803310
 H         1.949968         1.898645        -1.121671
 H         4.284120         1.697437         0.247353
 H         2.849068         1.581024         2.301020
 H         4.677082        -1.148993         2.205087
 H         2.892166        -1.971486        -0.569596
 H         2.172770        -1.884779         0.976903
