19
Iteration:  3176
 C         0.289407        -0.594485        -0.826820
 C         1.541526        -0.037646        -0.202941
 C         2.538793         0.942319        -0.960086
 C         3.528882         1.040237         0.120739
 C         2.672618         0.976076         1.410522
 O         1.282905         0.711770         0.988410
 C         3.546896        -0.346047         0.872196
 O         4.686906        -0.868020         1.517475
 C         2.586585        -1.134094         0.124615
 H        -0.206122         0.040500        -1.554922
 H         0.502542        -1.570612        -1.247083
 H        -0.549699        -0.850003        -0.081258
 H         2.936984         0.351416        -1.852284
 H         2.185468         1.843235        -1.325659
 H         4.418410         1.491224         0.105037
 H         2.826038         1.431049         2.414210
 H         4.278052        -1.656134         2.024707
 H         2.961997        -1.530783        -0.794467
 H         2.209747        -1.954899         0.688638
