19
Iteration:  3542charge 0 multiplicity 1
 C         0.314535        -0.465116        -0.945590
 C         1.560181        -0.088182        -0.198668
 C         2.515274         0.828331        -0.990689
 C         3.497969         1.064456         0.158914
 C         2.672750         0.945971         1.428685
 O         1.278276         0.700534         0.990642
 C         3.537965        -0.331665         0.876613
 O         4.737962        -0.845315         1.394297
 C         2.517179        -1.252836         0.284106
 H        -0.487167         0.319207        -0.520054
 H         0.417963        -0.142895        -1.977344
 H        -0.128310        -1.491306        -0.645357
 H         3.016302         0.257575        -1.660326
 H         1.903729         1.727750        -1.369628
 H         4.489289         1.796489         0.113707
 H         2.872691         1.213972         2.503671
 H         4.734669        -0.782654         2.365366
 H         2.919816        -1.889093        -0.555010
 H         2.146278        -1.863517         1.146271
