19
Iteration:   636
 C         0.074709        -0.395911        -0.726616
 C         1.522404        -0.076072        -0.174568
 C         2.569168         0.683061        -1.149584
 C         3.582504         0.906189        -0.057083
 C         2.822023         0.984096         1.289804
 O         1.404330         0.703992         1.050956
 C         3.524965        -0.256868         0.859181
 O         4.668523        -0.683854         1.535892
 C         2.480305        -1.273093         0.371472
 H        -0.685525        -0.788662         0.014996
 H        -0.291983         0.495346        -1.134540
 H         0.238676        -1.203190        -1.512383
 H         2.723683        -0.122119        -1.851025
 H         2.207579         1.550482        -1.889642
 H         4.616498         1.296408        -0.249351
 H         3.061852         1.716246         2.075302
 H         4.513899        -1.134422         2.423583
 H         2.929259        -1.865338        -0.504256
 H         2.146603        -1.873226         1.215977
