19
Iteration:  1282charge 0 multiplicity 1
 C         0.182889        -0.563899        -0.706575
 C         1.520349        -0.069110        -0.132949
 C         2.500808         0.769313        -1.109649
 C         3.570355         1.029379         0.026777
 C         2.822571         0.960315         1.285605
 O         1.431927         0.812056         0.957649
 C         3.551751        -0.310467         0.804990
 O         4.605398        -0.876241         1.544243
 C         2.440960        -1.218836         0.377079
 H        -0.102053        -1.389698        -0.008862
 H        -0.644549         0.248430        -0.725164
 H         0.333613        -0.914666        -1.691084
 H         2.909276         0.190809        -1.900617
 H         1.921950         1.709163        -1.507842
 H         4.522029         1.477300        -0.044377
 H         3.043736         1.613213         2.161171
 H         5.341183        -0.277669         1.201649
 H         2.722906        -1.971947        -0.360938
 H         1.814278        -1.576325         1.232348
