19
Iteration:  3206
 C         0.213582        -0.462665        -0.844422
 C         1.599883        -0.096679        -0.325050
 C         2.558800         0.909256        -0.983237
 C         3.501884         1.061290         0.085064
 C         2.706884         0.803568         1.430381
 O         1.368043         0.559975         1.018957
 C         3.534081        -0.266518         0.845019
 O         4.680051        -0.742998         1.585614
 C         2.538778        -1.156922         0.164365
 H        -0.329005         0.285495        -1.585411
 H         0.100289        -1.383826        -1.336499
 H        -0.437407        -0.395628         0.059640
 H         3.007836         0.473722        -1.941423
 H         2.047085         1.806634        -1.318485
 H         4.400150         1.750624         0.036489
 H         2.866236         1.248695         2.446456
 H         4.436237        -1.422078         2.183541
 H         2.908048        -1.817804        -0.663161
 H         1.926834        -1.870159         0.908594
