19
Iteration:  3190charge 0 multiplicity 1
 C         0.165966        -0.572554        -0.831467
 C         1.498957         0.032463        -0.272008
 C         2.568231         0.927200        -1.119651
 C         3.626492         1.056633         0.190748
 C         2.708976         0.838464         1.371405
 O         1.336327         0.602549         1.078345
 C         3.545710        -0.245758         0.910786
 O         4.657020        -0.806914         1.549182
 C         2.549657        -1.192807         0.133147
 H        -0.157278         0.023557        -1.606951
 H         0.460425        -1.596599        -1.313544
 H        -0.555146        -0.673518        -0.021963
 H         3.024728         0.407414        -1.929335
 H         2.124019         1.983921        -1.404341
 H         4.367838         1.879586         0.299637
 H         2.867223         1.471765         2.201981
 H         4.418956        -1.589519         2.009142
 H         3.054579        -1.658058        -0.713874
 H         2.069677        -1.857427         0.775433
