19
Iteration:   630charge 0 multiplicity 1
 C         0.112647        -0.453207        -0.702408
 C         1.489065        -0.056860        -0.199053
 C         2.576887         0.681987        -1.136605
 C         3.650050         0.925267        -0.079337
 C         2.800228         1.000886         1.255843
 O         1.403624         0.710701         1.090505
 C         3.494084        -0.235951         0.864624
 O         4.657817        -0.743087         1.537591
 C         2.494563        -1.228272         0.348712
 H        -0.552852        -0.709819         0.099871
 H        -0.409020         0.415234        -1.250856
 H         0.175357        -1.353241        -1.330614
 H         2.868495        -0.143080        -1.891468
 H         2.349642         1.484422        -1.744100
 H         4.482437         1.581730        -0.322301
 H         2.958453         1.693387         2.065603
 H         4.394314        -1.227236         2.312370
 H         2.850267        -1.802924        -0.469522
 H         2.030733        -1.777331         1.189789
