19
Iteration:  4295charge 0 multiplicity 1
 C         0.231673        -0.368541        -0.867259
 C         1.527272        -0.120923        -0.257206
 C         2.472446         0.961236        -0.930549
 C         3.507650         1.109391         0.071635
 C         2.709866         0.783752         1.321415
 O         1.337943         0.512507         1.014129
 C         3.523820        -0.321395         0.863856
 O         4.733088        -0.708863         1.623477
 C         2.566369        -1.237024         0.160385
 H        -0.217337        -1.104917        -0.247708
 H        -0.313804         0.531330        -0.788133
 H         0.364085        -0.801044        -1.878138
 H         2.907723         0.626796        -1.916633
 H         1.806898         1.823588        -1.039149
 H         4.570620         1.679174         0.061824
 H         2.813594         1.198380         2.353375
 H         4.800759        -1.703176         1.568460
 H         3.060786        -1.700793        -0.685580
 H         2.136845        -1.842746         0.954352
