19
Iteration:  1301
 C         0.142271        -0.583393        -0.668954
 C         1.562052        -0.114731        -0.275859
 C         2.471316         0.885872        -1.095153
 C         3.602517         0.929412        -0.135663
 C         2.764593         0.960596         1.261806
 O         1.389576         0.811292         0.958031
 C         3.559490        -0.265343         0.922423
 O         4.725467        -0.964514         1.595235
 C         2.424448        -1.182014         0.421204
 H        -0.087564        -1.471628        -0.126707
 H        -0.605696         0.235712        -0.387291
 H         0.095162        -0.674981        -1.807712
 H         2.732616         0.577788        -2.187206
 H         2.106199         1.843399        -1.161244
 H         4.263142         1.833063        -0.303855
 H         3.003065         1.624469         2.107062
 H         5.399023        -0.318669         1.908350
 H         2.638211        -1.925591        -0.403784
 H         1.835255        -1.603271         1.279173
