19
Iteration:  4148charge 0 multiplicity 1
 C         0.168670        -0.452344        -0.828109
 C         1.583389        -0.048034        -0.295550
 C         2.534089         1.024297        -0.914595
 C         3.549690         1.021684         0.237294
 C         2.633873         0.824920         1.370551
 O         1.301281         0.442969         1.036834
 C         3.538342        -0.294190         0.895452
 O         4.746363        -0.735692         1.433910
 C         2.614489        -1.191312         0.080849
 H        -0.226704         0.551590        -1.268795
 H         0.001330        -1.239259        -1.670566
 H        -0.258523        -0.690027         0.157316
 H         3.011639         0.623463        -1.856444
 H         2.010560         1.975827        -1.145714
 H         4.161311         1.989250         0.459208
 H         2.753999         1.289792         2.370322
 H         4.627046        -1.515708         1.939823
 H         3.115834        -1.643118        -0.853860
 H         2.110528        -2.041255         0.712085
