19
Iteration:  2052charge 0 multiplicity 1
 C         0.158187        -0.456669        -0.737397
 C         1.519505        -0.032249        -0.231637
 C         2.500037         0.868766        -1.075273
 C         3.522503         0.961133         0.023294
 C         2.727003         0.827786         1.335808
 O         1.360116         0.655310         1.055096
 C         3.592767        -0.320743         0.919376
 O         4.685729        -0.715192         1.653397
 C         2.597591        -1.228474         0.131741
 H         0.006008        -1.602306        -0.786436
 H        -0.660718        -0.005070        -0.070927
 H        -0.050044        -0.133523        -1.758974
 H         2.619579         0.343464        -1.981893
 H         1.983347         1.866381        -1.297161
 H         4.337617         1.713355         0.086454
 H         2.930249         1.550665         2.096565
 H         5.172628        -1.429390         1.157875
 H         3.043915        -1.483874        -0.865340
 H         2.011991        -2.051725         0.633997
