19
Iteration:  3024charge 0 multiplicity 1
 C         0.298517        -0.602031        -0.933827
 C         1.544995        -0.100733        -0.141626
 C         2.518727         0.912584        -0.964565
 C         3.546368         0.984500         0.102693
 C         2.682080         0.924929         1.413512
 O         1.333773         0.792063         0.996614
 C         3.494168        -0.264308         0.908789
 O         4.646972        -0.879324         1.417813
 C         2.559145        -1.200884         0.247197
 H        -0.235006         0.138794        -1.519987
 H         0.696564        -1.325008        -1.625566
 H        -0.348028        -0.952209        -0.019239
 H         2.890465         0.592320        -2.013465
 H         1.852631         1.814617        -0.969979
 H         4.563561         1.626744         0.097016
 H         2.987845         1.523133         2.254510
 H         4.405058        -1.061190         2.395823
 H         3.024886        -1.486579        -0.691908
 H         2.275283        -2.079249         0.801947
