19
Iteration:  3838charge 0 multiplicity 1
 C         0.318601        -0.518702        -0.943445
 C         1.567015        -0.018758        -0.221045
 C         2.517984         1.018884        -0.941639
 C         3.490822         1.097960         0.175731
 C         2.704793         0.876907         1.440447
 O         1.275134         0.569728         1.036331
 C         3.496869        -0.291542         0.939195
 O         4.732172        -0.883088         1.316319
 C         2.526625        -1.216528         0.218628
 H        -0.408444         0.082044        -1.562866
 H         0.546138        -1.496590        -1.400481
 H        -0.373487        -0.944460        -0.109483
 H         2.992922         0.677201        -1.859672
 H         2.101472         2.136371        -1.257345
 H         4.473467         1.639463         0.412247
 H         2.860215         1.347881         2.404901
 H         4.907209        -0.686861         2.233033
 H         2.933857        -1.948228        -0.520661
 H         1.911987        -1.931763         0.924685
