19
Iteration:  4658charge 0 multiplicity 1
 C         0.302669        -0.581966        -0.949606
 C         1.546459        -0.046894        -0.271621
 C         2.524674         0.898074        -0.960772
 C         3.473309         0.947057         0.143145
 C         2.725411         0.854516         1.475797
 O         1.376095         0.727714         1.036977
 C         3.511820        -0.280902         0.944894
 O         4.745926        -0.821193         1.329669
 C         2.436925        -1.118754         0.317504
 H         0.254071        -1.642131        -1.138058
 H        -0.620143        -0.254984        -0.371409
 H         0.283362        -0.085078        -1.915362
 H         2.805631         0.447410        -1.921792
 H         2.219673         1.910306        -1.322253
 H         4.259955         1.664796         0.124054
 H         2.876257         1.492398         2.325796
 H         4.602528        -1.256052         2.218736
 H         2.746392        -1.905227        -0.403034
 H         1.905507        -1.684836         1.070555
