19
Iteration:  1161charge 0 multiplicity 1
 C         0.146959        -0.536926        -0.639947
 C         1.528865        -0.098846        -0.206736
 C         2.477269         0.731662        -1.083317
 C         3.570207         0.980634        -0.052634
 C         2.747824         0.972070         1.304622
 O         1.385171         0.866557         0.953754
 C         3.581617        -0.253360         0.876997
 O         4.597190        -0.919486         1.578587
 C         2.559143        -1.194232         0.335566
 H        -0.290587        -1.047075         0.191293
 H        -0.594668         0.235956        -1.023322
 H         0.340965        -1.158319        -1.516803
 H         2.702847         0.160308        -1.999154
 H         2.267648         1.832291        -1.403937
 H         4.521551         1.627580        -0.096484
 H         3.040110         1.638713         2.076209
 H         5.447900        -0.801551         1.194699
 H         2.925524        -1.780099        -0.535752
 H         2.109015        -1.829188         1.114001
