19
Iteration:  4507
 C         0.346062        -0.473897        -0.923138
 C         1.522987        -0.073334        -0.206020
 C         2.492779         0.820294        -1.004395
 C         3.508825         1.047352         0.109790
 C         2.770148         0.955997         1.361379
 O         1.281926         0.693315         1.011778
 C         3.537425        -0.255245         0.862831
 O         4.671371        -0.913174         1.443254
 C         2.512291        -1.175783         0.356123
 H         0.226280        -0.189977        -1.965830
 H         0.187461        -1.591010        -0.850445
 H        -0.619961        -0.253516        -0.453531
 H         2.889731         0.292828        -1.857970
 H         2.012862         1.877099        -1.350602
 H         4.564567         1.423620        -0.156698
 H         3.108547         1.475805         2.248496
 H         4.592353        -0.972270         2.452939
 H         3.014741        -1.875938        -0.387454
 H         2.018082        -1.570341         1.286621
