19
Iteration:  3710charge 0 multiplicity 1
 C         0.306754        -0.569043        -0.937036
 C         1.547686        -0.019156        -0.248091
 C         2.489194         0.959414        -1.049050
 C         3.508790         1.068405         0.110259
 C         2.737853         0.928726         1.454898
 O         1.310996         0.605861         1.146286
 C         3.496632        -0.319071         0.891461
 O         4.671912        -0.897723         1.433018
 C         2.519001        -1.147348         0.180645
 H        -0.336141         0.284976        -1.164713
 H         0.674021        -1.074822        -1.893600
 H        -0.203798        -1.165533        -0.066522
 H         2.998778         0.326844        -1.823995
 H         2.230471         1.898472        -1.352094
 H         4.336918         1.735549        -0.013265
 H         3.016929         1.409165         2.440904
 H         4.581005        -0.858043         2.413442
 H         3.068520        -1.612467        -0.625393
 H         2.166097        -1.858701         0.907086
