19
Iteration:  4329charge 0 multiplicity 1
 C         0.227123        -0.410397        -0.898480
 C         1.554589        -0.137102        -0.265220
 C         2.464267         0.877429        -1.013531
 C         3.482290         1.064006         0.043034
 C         2.761347         0.831256         1.346596
 O         1.407104         0.580037         1.140800
 C         3.519798        -0.326682         0.899174
 O         4.641979        -0.723349         1.712811
 C         2.524136        -1.177726         0.077121
 H         0.052594        -1.469729        -0.880719
 H        -0.543843         0.016566        -0.331946
 H         0.110784        -0.002909        -1.900972
 H         2.904551         0.491104        -1.928252
 H         1.908571         1.796933        -1.319100
 H         4.464655         1.689303         0.103955
 H         2.968734         1.314557         2.298974
 H         5.273024        -1.242572         1.090564
 H         2.985968        -1.676371        -0.758813
 H         2.219575        -2.030915         0.648686
