19
Iteration:  3025charge 0 multiplicity 1
 C         0.297943        -0.603423        -0.927589
 C         1.545232        -0.103816        -0.140659
 C         2.531786         0.912321        -0.964626
 C         3.544613         0.987732         0.106347
 C         2.679146         0.921883         1.411974
 O         1.341783         0.794334         0.995939
 C         3.500084        -0.264421         0.905953
 O         4.638615        -0.875777         1.416035
 C         2.548948        -1.194900         0.242789
 H        -0.219138         0.103307        -1.489157
 H         0.675735        -1.328525        -1.664507
 H        -0.344249        -0.993575        -0.044908
 H         2.881684         0.592541        -1.954537
 H         1.823672         1.798446        -0.981206
 H         4.541538         1.628372         0.092780
 H         3.018096         1.517898         2.265648
 H         4.386820        -1.060780         2.393542
 H         3.039110        -1.484540        -0.723762
 H         2.270790        -2.089843         0.830199
