19
Iteration:  1619
 C         0.082165        -0.339380        -0.667427
 C         1.505630        -0.122839        -0.216704
 C         2.391264         0.742524        -1.151078
 C         3.488656         0.934738        -0.091842
 C         2.760690         0.937554         1.209181
 O         1.427114         0.688630         0.984398
 C         3.620123        -0.284913         0.992830
 O         4.768136        -0.842099         1.671257
 C         2.534514        -1.242045         0.231124
 H        -0.412525        -1.099056         0.040944
 H        -0.382119         0.686596        -0.676487
 H         0.219330        -0.756814        -1.592427
 H         2.725738         0.408758        -2.213214
 H         2.110105         1.766003        -1.243669
 H         4.388527         1.559785        -0.218422
 H         3.063133         1.793491         1.836761
 H         5.000875        -0.345377         2.518430
 H         2.970984        -1.801218        -0.577401
 H         2.133897        -2.031211         0.891262
