19
Iteration:  3132
 C         0.253127        -0.449781        -0.950974
 C         1.498714        -0.034412        -0.274989
 C         2.564913         0.905220        -0.986135
 C         3.562033         1.025257         0.116657
 C         2.649171         0.875676         1.360924
 O         1.344531         0.540692         1.055137
 C         3.582553        -0.293465         0.896069
 O         4.756082        -0.763803         1.487302
 C         2.446104        -1.210703         0.291892
 H        -0.517308         0.387462        -0.968861
 H         0.364141        -0.949151        -1.887872
 H        -0.393871        -1.200642        -0.334146
 H         3.108994         0.491163        -1.948656
 H         2.216064         1.850774        -1.329563
 H         4.506449         1.535600        -0.103467
 H         2.767029         1.439605         2.316293
 H         4.504289        -0.875479         2.472196
 H         2.765413        -1.904093        -0.438126
 H         1.930635        -1.778539         1.029133
