19
Iteration:  4361
 C         0.227762        -0.504262        -0.817701
 C         1.602599        -0.128963        -0.271425
 C         2.576623         0.897005        -1.000466
 C         3.546255         1.024544         0.179769
 C         2.629404         0.813795         1.346088
 O         1.298860         0.744703         0.998459
 C         3.535847        -0.255254         0.909019
 O         4.665379        -0.876358         1.476542
 C         2.516295        -1.183015         0.231564
 H         0.224761        -1.496033        -1.234295
 H        -0.442280        -0.581824        -0.026809
 H        -0.164407         0.052146        -1.671828
 H         3.044947         0.485000        -1.902409
 H         2.074178         1.810637        -1.167223
 H         4.446179         1.731484         0.243943
 H         2.772211         1.308109         2.285571
 H         5.464324        -0.385287         1.383034
 H         2.862543        -1.792454        -0.603502
 H         2.202606        -1.752399         1.100458
