19
Iteration:  2737charge 0 multiplicity 1
 C         0.209690        -0.594999        -0.847484
 C         1.556819        -0.005323        -0.289371
 C         2.516033         0.856276        -1.048671
 C         3.497653         0.972165         0.116498
 C         2.732332         0.870392         1.434196
 O         1.320369         0.708831         1.008268
 C         3.543265        -0.267054         0.973227
 O         4.760624        -0.814357         1.544705
 C         2.534838        -1.105384         0.166943
 H        -0.256204         0.038904        -1.697570
 H         0.215818        -1.539771        -1.416604
 H        -0.603588        -0.607266        -0.220794
 H         3.021314         0.378545        -1.976577
 H         2.079214         1.727259        -1.283093
 H         4.309976         1.865713         0.040104
 H         2.898458         1.547035         2.258758
 H         4.563260        -1.484704         2.185732
 H         2.884354        -1.734116        -0.691438
 H         2.045318        -1.968427         0.822847
