19
Iteration:  1558charge 0 multiplicity 1
 C         0.165139        -0.558166        -0.760141
 C         1.465979        -0.064545        -0.283821
 C         2.452924         0.723661        -1.125323
 C         3.603882         0.927924         0.036920
 C         2.765820         0.983346         1.347103
 O         1.414913         0.881309         0.980039
 C         3.479724        -0.302073         0.977136
 O         4.862774        -0.803307         1.455201
 C         2.414991        -1.183155         0.418136
 H        -0.060073        -1.534257        -0.325178
 H        -0.645630        -0.041707        -0.329351
 H        -0.034526        -0.549483        -1.920236
 H         2.746497         0.230005        -1.970787
 H         2.053157         1.772793        -1.429410
 H         4.558918         1.287370        -0.017230
 H         2.992007         1.788610         2.059464
 H         4.675964        -1.738617         1.645855
 H         2.794846        -1.903619        -0.329011
 H         1.840316        -1.628894         1.258791
