19
Iteration:  4632charge 0 multiplicity 1
 C         0.305656        -0.557623        -0.914822
 C         1.522020        -0.080588        -0.188480
 C         2.495640         0.932153        -0.943878
 C         3.562744         0.993190         0.042804
 C         2.766221         0.960626         1.338212
 O         1.326083         0.738386         1.106572
 C         3.524443        -0.318148         0.872240
 O         4.699314        -0.777054         1.537535
 C         2.453779        -1.230431         0.202067
 H         0.467611        -1.597005        -1.294406
 H        -0.606900        -0.565718        -0.343556
 H         0.077131         0.135490        -1.759041
 H         2.754665         0.441598        -1.974640
 H         2.094382         1.865678        -1.276143
 H         4.578321         1.485404        -0.086975
 H         2.934423         1.156156         2.426256
 H         4.531785        -1.703272         1.772286
 H         2.668313        -1.810410        -0.680452
 H         2.065594        -1.925550         0.949608
