19
Iteration:  4823
 C         0.270876        -0.369355        -0.973769
 C         1.529860        -0.142685        -0.207087
 C         2.474757         0.849845        -0.947185
 C         3.541490         1.030590         0.107172
 C         2.729035         0.822979         1.423643
 O         1.384011         0.642950         1.020644
 C         3.523880        -0.334022         0.985467
 O         4.823518        -0.719402         1.365841
 C         2.379217        -1.237817         0.294709
 H        -0.519949        -0.424808        -0.213754
 H        -0.088564         0.367670        -1.686733
 H         0.254063        -1.380297        -1.485389
 H         2.783165         0.534255        -1.942788
 H         1.944246         1.748801        -1.267363
 H         4.447755         1.731765         0.157750
 H         2.738371         1.352963         2.367068
 H         4.635879        -1.134060         2.246394
 H         2.701587        -1.792376        -0.594212
 H         1.939151        -1.972742         0.966654
