19
Iteration:  3985
 C         0.330872        -0.500707        -0.976108
 C         1.534148        -0.154217        -0.208922
 C         2.486365         0.947224        -0.879800
 C         3.534770         1.137819         0.108540
 C         2.685329         0.775363         1.469444
 O         1.349358         0.655966         1.011778
 C         3.582684        -0.234523         0.893364
 O         4.712494        -0.860056         1.375194
 C         2.492361        -1.170508         0.259620
 H        -0.549452        -0.042205        -0.457476
 H         0.139961        -0.263875        -2.034806
 H         0.267402        -1.538165        -0.800779
 H         2.754829         0.733145        -2.014992
 H         1.833827         1.830646        -0.998919
 H         4.226485         1.957816         0.099354
 H         2.818089         1.273623         2.413447
 H         4.404892        -1.332145         2.187161
 H         2.887516        -1.793356        -0.567841
 H         2.012127        -1.924080         0.915085
