19
Iteration:  4289charge 0 multiplicity 1
 C         0.243302        -0.414311        -0.868231
 C         1.589637        -0.104598        -0.293112
 C         2.474898         0.961748        -1.000525
 C         3.512785         1.068298         0.140424
 C         2.675049         0.825604         1.383041
 O         1.360263         0.516211         1.038706
 C         3.524492        -0.264533         0.859590
 O         4.750909        -0.733687         1.594336
 C         2.533270        -1.250899         0.159042
 H        -0.444094        -1.001049        -0.162660
 H        -0.291625         0.590147        -0.852417
 H         0.309761        -0.934457        -1.823596
 H         2.823322         0.629127        -1.953253
 H         1.820293         1.901513        -1.145403
 H         4.317872         1.698422         0.157916
 H         2.797613         1.280850         2.336017
 H         4.855858        -1.665558         1.579653
 H         2.998462        -1.727921        -0.728892
 H         1.934687        -1.905722         0.833849
