19
Iteration:  4243
 C         0.323019        -0.570552        -0.912116
 C         1.525190        -0.114301        -0.178952
 C         2.562594         0.933660        -0.922847
 C         3.513385         1.083609         0.290682
 C         2.649135         0.913330         1.510948
 O         1.248338         0.675519         1.016078
 C         3.565448        -0.287595         0.821237
 O         4.743340        -0.832680         1.294450
 C         2.535382        -1.211258         0.142464
 H        -0.545703        -0.417351        -0.270020
 H         0.181736         0.076840        -1.755061
 H         0.491045        -1.644205        -1.091856
 H         3.077289         0.571096        -1.790103
 H         1.959871         1.922596        -1.169544
 H         4.347776         1.899269         0.285680
 H         2.602003         1.275540         2.564823
 H         4.615123        -1.363081         2.087111
 H         2.758913        -1.698947        -0.820798
 H         2.092352        -1.827061         0.897256
