19
Iteration:  1163
 C         0.145321        -0.547806        -0.652079
 C         1.521401        -0.098297        -0.202472
 C         2.458895         0.727227        -1.097735
 C         3.571315         0.968555        -0.049958
 C         2.751847         0.969347         1.306177
 O         1.393670         0.877895         0.964602
 C         3.575977        -0.264597         0.874238
 O         4.603437        -0.919603         1.593167
 C         2.573052        -1.180233         0.320949
 H        -0.379718        -1.058952         0.195418
 H        -0.563415         0.249595        -1.059738
 H         0.243857        -1.183766        -1.482760
 H         2.743214         0.180718        -1.941072
 H         2.281188         1.844863        -1.449196
 H         4.504126         1.665501        -0.073628
 H         3.056523         1.630593         2.101351
 H         5.454036        -0.798160         1.159917
 H         2.972163        -1.706377        -0.514783
 H         2.091973        -1.804071         1.083807
