19
Iteration:  4480charge 0 multiplicity 1
 C         0.158428        -0.464293        -0.745102
 C         1.507820        -0.114281        -0.253875
 C         2.638825         0.833194        -1.084010
 C         3.581288         0.985516         0.141754
 C         2.720842         0.854936         1.369106
 O         1.344773         0.705096         0.910692
 C         3.494781        -0.290206         0.945167
 O         4.706934        -0.724169         1.527787
 C         2.488553        -1.216463         0.204955
 H        -0.145577        -0.109761        -1.738484
 H        -0.023103        -1.512978        -0.704452
 H        -0.638470        -0.010897        -0.118299
 H         3.175319         0.218451        -1.872220
 H         2.258827         1.724275        -1.388410
 H         4.312976         1.723403         0.163968
 H         2.994643         1.387172         2.280791
 H         4.579279        -1.369625         2.308220
 H         2.993774        -1.495473        -0.714954
 H         2.116251        -2.063198         0.756793
