19
Iteration:  2503
 C         0.272388        -0.572508        -0.845274
 C         1.604284        -0.078232        -0.241893
 C         2.464858         0.915936        -0.989444
 C         3.578454         0.982491         0.154565
 C         2.694307         0.911989         1.380022
 O         1.301077         0.663192         1.003695
 C         3.494890        -0.259910         0.987238
 O         4.670907        -0.810308         1.413504
 C         2.554520        -1.121518         0.192702
 H         0.031736         0.019068        -1.740242
 H         0.543811        -1.574621        -1.245289
 H        -0.618208        -0.748812        -0.130553
 H         2.818367         0.528606        -1.937467
 H         2.071471         2.001598        -1.133671
 H         4.563716         1.590632         0.103486
 H         2.784807         1.521862         2.272659
 H         4.439244        -1.357155         2.239363
 H         3.217154        -1.622682        -0.582335
 H         2.165457        -2.096886         0.750780
