19
Iteration:  2130
 C         0.222357        -0.431958        -0.905674
 C         1.518769        -0.097754        -0.189190
 C         2.484680         0.868496        -0.940820
 C         3.552907         0.898416         0.050304
 C         2.712084         0.906673         1.356340
 O         1.355141         0.607946         1.077428
 C         3.537024        -0.259049         0.967235
 O         4.740688        -0.762645         1.499872
 C         2.473535        -1.221417         0.223017
 H         0.236268        -1.603668        -1.172040
 H        -0.638110        -0.263939        -0.223423
 H         0.031450         0.197428        -1.791999
 H         2.766917         0.494711        -1.884454
 H         1.987864         1.794438        -1.297869
 H         4.319903         1.565467         0.125161
 H         3.012068         1.712813         2.052909
 H         5.431979        -0.274987         1.110482
 H         2.840401        -1.747491        -0.691592
 H         1.997497        -2.124349         0.742233
