19
Iteration:  3978
 C         0.315595        -0.553214        -0.985592
 C         1.557944        -0.073403        -0.200416
 C         2.464873         0.921640        -0.959834
 C         3.540240         1.099838         0.163447
 C         2.709222         0.831116         1.479818
 O         1.326428         0.612136         1.038860
 C         3.541571        -0.242009         0.894960
 O         4.735016        -0.857292         1.317906
 C         2.452395        -1.173185         0.305250
 H        -0.378867         0.111420        -0.448715
 H         0.443357        -0.186178        -2.032096
 H         0.216904        -1.667475        -0.983812
 H         2.986936         0.845601        -1.946852
 H         1.927254         1.855036        -1.063875
 H         4.344707         1.966407         0.392927
 H         2.757837         1.385905         2.377872
 H         4.488444        -1.181393         2.153545
 H         2.799045        -1.773853        -0.526043
 H         1.987378        -1.925349         0.921463
