19
Iteration:  1911charge 0 multiplicity 1
 C         0.159363        -0.417854        -0.780892
 C         1.559864        -0.166752        -0.147844
 C         2.373892         0.851185        -0.973547
 C         3.590848         1.016747         0.021868
 C         2.731210         0.893037         1.346086
 O         1.368408         0.685324         1.026140
 C         3.628133        -0.341700         0.834850
 O         4.616899        -0.790687         1.613207
 C         2.594823        -1.257569         0.129868
 H        -0.673458        -0.276411         0.002817
 H         0.051166         0.309701        -1.647541
 H        -0.053898        -1.417569        -1.114907
 H         2.541321         0.450008        -2.030140
 H         1.873339         1.851880        -1.133812
 H         4.395832         1.808858        -0.102354
 H         2.978892         1.277469         2.345084
 H         5.496988        -0.400614         1.260311
 H         3.110461        -1.472104        -0.830373
 H         2.390114        -2.135404         0.794330
