19
Iteration:  2970
 C         0.161548        -0.313986        -0.873951
 C         1.589320        -0.144194        -0.202497
 C         2.567441         0.799166        -0.959394
 C         3.538766         1.008484         0.149247
 C         2.660864         0.793529         1.393032
 O         1.328858         0.615178         1.002119
 C         3.480758        -0.315788         0.796967
 O         4.697940        -0.591246         1.515715
 C         2.617322        -1.301249         0.174934
 H         0.174665         0.480556        -1.564202
 H         0.070240        -1.312539        -1.214421
 H        -0.650729         0.021830        -0.089491
 H         3.056875         0.197334        -1.758587
 H         2.074300         1.611903        -1.524915
 H         4.566075         1.670908        -0.018244
 H         2.954415         1.012393         2.378704
 H         4.447334        -1.148281         2.328083
 H         2.971801        -2.077255        -0.580854
 H         2.050691        -1.904080         0.944788
