19
Iteration:   503
 C         0.125138        -0.326512        -0.736618
 C         1.522709        -0.128540        -0.191206
 C         2.556875         0.667724        -1.191450
 C         3.554954         0.794355        -0.100679
 C         2.793842         0.938379         1.183896
 O         1.374641         0.752074         1.019529
 C         3.513943        -0.315766         0.973346
 O         4.767173        -0.635626         1.558919
 C         2.471987        -1.255178         0.453693
 H        -0.344864        -1.237834        -0.339383
 H        -0.592696         0.571990        -0.421298
 H        -0.038810        -0.223641        -1.756977
 H         2.830325         0.047801        -2.072704
 H         2.038986         1.604252        -1.528307
 H         4.484477         1.382262        -0.178486
 H         3.049707         1.655127         1.923347
 H         4.658469        -0.973600         2.511904
 H         2.801643        -1.979358        -0.320136
 H         1.915160        -1.957476         1.161701
