19
Iteration:   982charge 0 multiplicity 1
 C         0.134912        -0.476970        -0.748373
 C         1.550911        -0.067908        -0.169662
 C         2.473641         0.754642        -1.095853
 C         3.511561         0.998243         0.020125
 C         2.761049         0.905144         1.307406
 O         1.375115         0.765887         0.942339
 C         3.614746        -0.268326         0.828419
 O         4.776944        -0.836528         1.493988
 C         2.472665        -1.175480         0.405505
 H        -0.646046        -0.672122         0.046928
 H        -0.088575         0.310804        -1.408033
 H         0.282521        -1.454258        -1.244409
 H         2.761788         0.074326        -2.070629
 H         2.019520         1.657630        -1.389662
 H         4.376760         1.740589        -0.262120
 H         3.124685         1.510905         2.099626
 H         4.448051        -1.111152         2.415096
 H         2.568416        -2.144258        -0.186386
 H         2.030531        -1.567056         1.369306
