19
Iteration:  1618charge 0 multiplicity 1
 C         0.080903        -0.347921        -0.667562
 C         1.495122        -0.122147        -0.216939
 C         2.392068         0.744518        -1.148651
 C         3.483435         0.934755        -0.095459
 C         2.768509         0.942086         1.212538
 O         1.430782         0.692775         0.989015
 C         3.609736        -0.291742         0.990406
 O         4.767557        -0.842000         1.668510
 C         2.537998        -1.238901         0.234571
 H        -0.389274        -1.129843        -0.001804
 H        -0.370520         0.704049        -0.672853
 H         0.190697        -0.742879        -1.621971
 H         2.763085         0.415094        -2.208760
 H         2.136069         1.725333        -1.256335
 H         4.401851         1.616063        -0.250524
 H         3.097989         1.786190         1.839439
 H         4.974221        -0.362315         2.557169
 H         2.993218        -1.817380        -0.566440
 H         2.153540        -2.021248         0.884571
