19
Iteration:  1232
 C         0.083612        -0.353691        -0.783847
 C         1.501077        -0.115194        -0.237638
 C         2.441948         0.764110        -1.031131
 C         3.530675         0.955959        -0.017267
 C         2.777258         0.916579         1.273665
 O         1.439690         0.681327         0.966818
 C         3.624615        -0.306304         0.887870
 O         4.782403        -0.670788         1.609362
 C         2.441782        -1.328710         0.379842
 H        -0.566434        -0.247396         0.126447
 H        -0.137920         0.458678        -1.396918
 H         0.030648        -1.263655        -1.441400
 H         2.868165         0.260126        -1.960322
 H         1.852615         1.644969        -1.305921
 H         4.320472         1.579086        -0.318684
 H         2.847465         1.481988         2.206364
 H         5.109800        -1.415906         1.141810
 H         2.958429        -2.072468        -0.227162
 H         1.895004        -1.740942         1.232069
