19
Iteration:  4519
 C         0.316649        -0.522226        -1.000948
 C         1.561769        -0.058441        -0.151712
 C         2.464631         0.893426        -0.993092
 C         3.607693         0.950014        -0.037659
 C         2.768124         0.950815         1.352836
 O         1.295254         0.648579         1.062743
 C         3.547682        -0.253733         0.917911
 O         4.664730        -0.902317         1.428135
 C         2.439882        -1.136972         0.455368
 H         0.521505        -0.133873        -2.000972
 H         0.410233        -1.634048        -1.089387
 H        -0.597061        -0.028091        -0.566728
 H         2.784808         0.483950        -1.987222
 H         1.937393         1.974833        -1.197905
 H         4.418643         1.710908        -0.039570
 H         2.882985         1.528771         2.228162
 H         4.606211        -0.762287         2.353262
 H         2.719597        -1.863897        -0.353167
 H         2.014554        -1.854079         1.215271
