19
Iteration:  4367
 C         0.229272        -0.552043        -0.836123
 C         1.610355        -0.137280        -0.299479
 C         2.595610         0.872348        -0.995509
 C         3.537680         1.096690         0.203255
 C         2.651967         0.817856         1.371149
 O         1.272597         0.776400         0.973740
 C         3.562180        -0.306278         0.950286
 O         4.663896        -0.893552         1.427946
 C         2.505809        -1.190856         0.282088
 H         0.317286        -1.520737        -1.398436
 H        -0.453168        -0.583880         0.101788
 H        -0.216319         0.254527        -1.502240
 H         3.118564         0.541289        -1.950684
 H         1.924010         1.805449        -1.104288
 H         4.412458         1.735350         0.090360
 H         3.010212         1.362054         2.277988
 H         5.374855        -0.234953         1.471622
 H         2.865412        -1.701390        -0.644845
 H         1.879994        -1.752916         1.051860
