19
Iteration:  2649charge 0 multiplicity 1
 C         0.298576        -0.515839        -0.875681
 C         1.607594        -0.114089        -0.206093
 C         2.460906         0.851120        -1.003807
 C         3.577827         0.958468         0.115476
 C         2.657551         0.909335         1.361430
 O         1.324381         0.754103         0.982655
 C         3.513737        -0.274845         0.921448
 O         4.622578        -0.840091         1.468558
 C         2.574722        -1.212342         0.248822
 H        -0.479450         0.169682        -0.553927
 H         0.435782        -0.404733        -1.938318
 H         0.003581        -1.403339        -0.444095
 H         2.828229         0.473041        -2.015109
 H         1.844429         1.663784        -1.183620
 H         4.450646         1.564184         0.039143
 H         2.923981         1.520181         2.237312
 H         4.828402        -0.516910         2.354088
 H         3.045766        -1.692226        -0.639126
 H         2.209179        -1.979893         1.109912
