19
Iteration:  4897charge 0 multiplicity 1
 C         0.179480        -0.522661        -0.631376
 C         1.552514        -0.037323        -0.277060
 C         2.643910         0.906707        -1.086859
 C         3.621948         0.993355         0.037707
 C         2.688683         0.923011         1.388606
 O         1.332577         0.682788         0.954592
 C         3.518219        -0.249557         0.901082
 O         4.630388        -0.874856         1.484517
 C         2.544900        -1.230076         0.239386
 H        -0.046388        -1.540738        -0.434646
 H        -0.571545         0.091101        -0.143898
 H         0.022428        -0.511087        -1.722566
 H         2.980558         0.421542        -2.148247
 H         2.202104         1.778973        -1.473864
 H         4.283855         1.911168         0.357914
 H         2.843487         1.623970         2.217012
 H         4.130206        -1.249422         2.293046
 H         3.158933        -1.524569        -0.642860
 H         2.132864        -2.087858         0.738645
