19
Iteration:  3192
 C         0.156006        -0.560226        -0.837541
 C         1.517457         0.010494        -0.285524
 C         2.577988         0.922057        -1.114508
 C         3.613807         1.065231         0.167827
 C         2.700710         0.816166         1.378771
 O         1.352320         0.594530         1.083641
 C         3.549632        -0.258307         0.919725
 O         4.656603        -0.788008         1.550200
 C         2.539485        -1.175320         0.134277
 H        -0.214985         0.098013        -1.645340
 H         0.414381        -1.597785        -1.260659
 H        -0.498896        -0.671519        -0.029222
 H         2.985184         0.387949        -1.929232
 H         2.118900         2.023384        -1.380353
 H         4.425955         1.979800         0.297852
 H         2.859226         1.457558         2.215248
 H         4.368329        -1.624036         2.040082
 H         3.063110        -1.678322        -0.731938
 H         2.012678        -1.876175         0.857053
