19
Iteration:  1486
 C         0.043931        -0.398383        -0.723581
 C         1.495767        -0.099213        -0.176155
 C         2.492402         0.789565        -1.051845
 C         3.582670         0.905552        -0.063143
 C         2.798336         0.920609         1.257316
 O         1.412915         0.735863         1.028126
 C         3.609180        -0.360455         0.868770
 O         4.748339        -0.710330         1.608837
 C         2.472406        -1.298646         0.201037
 H        -0.594380        -0.722433         0.061411
 H        -0.586879         0.378258        -1.193097
 H         0.146645        -1.203861        -1.441652
 H         2.858070         0.205235        -2.031716
 H         1.982864         1.668174        -1.313342
 H         4.519387         1.427116        -0.001630
 H         3.073178         1.620545         2.030650
 H         4.747260        -0.201336         2.466433
 H         2.877150        -1.985970        -0.588234
 H         2.003859        -1.860807         0.998422
