19
Iteration:  4635
 C         0.295979        -0.552554        -0.942972
 C         1.523544        -0.056036        -0.161165
 C         2.488676         0.932946        -0.965720
 C         3.594146         0.992543         0.061852
 C         2.766227         0.934342         1.360548
 O         1.339401         0.731971         1.104015
 C         3.492367        -0.312887         0.871520
 O         4.707746        -0.774429         1.517024
 C         2.437102        -1.221414         0.219844
 H         0.538231        -1.584347        -1.215467
 H        -0.636380        -0.635912        -0.321449
 H         0.110271        -0.034316        -1.875206
 H         2.792782         0.493326        -1.989307
 H         1.931189         1.790605        -1.306991
 H         4.627220         1.468044        -0.047088
 H         2.962714         1.250331         2.370423
 H         4.515941        -1.665010         1.779800
 H         2.742766        -1.837630        -0.635822
 H         2.022159        -1.914190         0.914051
