19
Iteration:  4093charge 0 multiplicity 1
 C         0.329344        -0.523980        -1.038731
 C         1.494704        -0.025560        -0.196095
 C         2.507761         1.013112        -0.937859
 C         3.521644         1.058082         0.176316
 C         2.658077         0.792965         1.490590
 O         1.285353         0.560846         1.221663
 C         3.522455        -0.247597         0.864966
 O         4.755065        -0.843895         1.291148
 C         2.545064        -1.172852         0.235943
 H         0.091796         0.305879        -1.803776
 H         0.774802        -1.473326        -1.501013
 H        -0.652846        -0.845967        -0.600527
 H         2.952094         0.777515        -1.939670
 H         1.900922         1.943133        -1.129273
 H         4.469236         1.752910         0.085133
 H         2.714928         1.461148         2.299046
 H         4.639914        -1.179954         2.163223
 H         2.936844        -1.598900        -0.749099
 H         2.112300        -2.104446         0.764866
