19
Iteration:   139charge 0 multiplicity 1
 C         0.222453        -0.429900        -0.695584
 C         1.594425        -0.181222        -0.227798
 C         2.452791         0.726592        -1.072455
 C         3.529418         0.965084        -0.055219
 C         2.805655         0.972567         1.290291
 O         1.425505         0.799200         0.974926
 C         3.530137        -0.288432         0.819024
 O         4.677661        -0.728196         1.529096
 C         2.455754        -1.270834         0.395480
 H        -0.535048        -0.291143         0.161690
 H        -0.067889         0.259219        -1.482791
 H         0.056992        -1.543991        -1.012208
 H         2.933862         0.173317        -1.993782
 H         1.878254         1.572939        -1.371848
 H         4.447234         1.466063        -0.204852
 H         3.065271         1.614259         2.154851
 H         4.403985        -1.242647         2.328998
 H         2.762859        -2.032856        -0.394204
 H         1.860412        -1.787005         1.227360
