19
Iteration:  1387
 C         0.180425        -0.403220        -0.714864
 C         1.571425        -0.216587        -0.264479
 C         2.440025         0.765455        -1.028093
 C         3.625469         0.894599         0.008312
 C         2.769571         1.004531         1.216321
 O         1.375477         0.781429         0.987690
 C         3.475869        -0.317622         1.005074
 O         4.767154        -0.659390         1.432652
 C         2.443509        -1.317902         0.397851
 H        -0.484608        -0.620420         0.066700
 H        -0.194350         0.538024        -1.133903
 H         0.051231        -1.208881        -1.482720
 H         2.730097         0.579483        -2.173797
 H         1.904381         1.671973        -1.036066
 H         4.633588         1.239130        -0.090506
 H         3.172032         1.743533         1.952503
 H         4.716214        -1.533978         1.963078
 H         2.687539        -2.048459        -0.394621
 H         1.968371        -1.974226         1.088210
