19
Iteration:  3750
 C         0.142566        -0.439096        -0.778263
 C         1.569078        -0.085930        -0.317534
 C         2.540172         0.981357        -0.989236
 C         3.505193         1.001543         0.100312
 C         2.682698         0.809615         1.343360
 O         1.346396         0.620233         0.971190
 C         3.569189        -0.296546         0.870366
 O         4.701572        -0.738235         1.619004
 C         2.645487        -1.284476         0.118201
 H        -0.458665         0.388188        -0.367022
 H        -0.122798        -0.344708        -1.837319
 H        -0.030819        -1.389360        -0.257980
 H         2.886468         0.629015        -1.919157
 H         1.920765         1.999109        -1.219672
 H         4.341987         1.557078         0.162599
 H         2.824864         1.095600         2.449518
 H         4.475303        -1.322884         2.379229
 H         3.143054        -1.722205        -0.778728
 H         1.942309        -1.996696         0.703384
