19
Iteration:  1291charge 0 multiplicity 1
 C         0.185013        -0.588584        -0.664790
 C         1.509177        -0.058925        -0.220097
 C         2.510139         0.848891        -1.119029
 C         3.544884         1.023736        -0.020206
 C         2.805601         0.957581         1.224324
 O         1.428286         0.811439         0.954986
 C         3.596452        -0.339607         0.869487
 O         4.666070        -0.904485         1.568771
 C         2.361189        -1.198802         0.405352
 H        -0.210471        -1.481689        -0.209381
 H        -0.639934         0.239479        -0.542618
 H         0.203784        -0.904608        -1.742619
 H         2.907910         0.392650        -2.080320
 H         1.894304         1.722379        -1.308261
 H         4.493962         1.615403        -0.016432
 H         2.987067         1.655241         2.066959
 H         5.553266        -0.426127         1.631116
 H         2.674794        -2.050306        -0.265596
 H         2.012692        -1.762826         1.313299
