19
Iteration:  1969
 C         0.222882        -0.534036        -0.823570
 C         1.548791        -0.094969        -0.188570
 C         2.526756         0.820852        -0.988342
 C         3.481993         1.033712         0.187135
 C         2.708130         0.902250         1.422891
 O         1.317526         0.773846         1.056847
 C         3.581105        -0.257302         0.845539
 O         4.699922        -0.800399         1.308231
 C         2.536135        -1.212318         0.258934
 H        -0.404504        -1.083642        -0.168901
 H        -0.333868         0.227220        -1.270711
 H         0.568670        -1.119142        -1.635388
 H         2.987459         0.230223        -1.883840
 H         2.066889         1.699450        -1.275490
 H         4.328255         1.617917        -0.017846
 H         2.883521         1.402858         2.363591
 H         4.671771        -1.427953         1.993911
 H         2.960733        -1.780420        -0.533151
 H         2.257007        -1.988016         0.945062
