19
Iteration:  4736
 C         0.197939        -0.425487        -0.783308
 C         1.511747        -0.083722        -0.198667
 C         2.456133         0.939053        -0.945829
 C         3.593101         0.968199         0.038782
 C         2.803241         0.782924         1.275162
 O         1.389206         0.588293         1.022210
 C         3.605407        -0.343220         0.809298
 O         4.618189        -0.724540         1.610258
 C         2.511171        -1.195987         0.096063
 H        -0.504826        -1.039180        -0.211130
 H        -0.233367         0.540263        -1.138639
 H         0.656025        -1.051038        -1.612112
 H         2.879225         0.613758        -1.905005
 H         2.028254         2.069853        -0.876897
 H         4.296218         1.785888         0.109947
 H         3.014200         1.250898         2.288781
 H         4.379786        -0.782343         2.598119
 H         2.822541        -1.841807        -0.759957
 H         1.938214        -1.830811         0.814498
