19
Iteration:   463
 C         0.258330        -0.630818        -0.632380
 C         1.551006        -0.033515        -0.115926
 C         2.534298         0.736683        -1.100367
 C         3.575861         0.949058        -0.072845
 C         2.808144         1.005676         1.217090
 O         1.393400         0.957536         0.916167
 C         3.505288        -0.302805         0.843088
 O         4.623950        -0.896356         1.515627
 C         2.401129        -1.179380         0.421894
 H         0.060344        -1.573256        -0.044998
 H        -0.504912         0.027781        -0.440710
 H         0.412945        -0.975382        -1.720169
 H         2.840412         0.103733        -1.904550
 H         2.092936         1.672150        -1.576311
 H         4.583034         1.556103        -0.164659
 H         3.130247         1.606047         2.058716
 H         4.380072        -1.206929         2.387551
 H         2.710280        -1.735146        -0.495762
 H         1.945334        -1.739256         1.187794
