19
Iteration:  2725
 C         0.138861        -0.467073        -0.892814
 C         1.536162        -0.121772        -0.243947
 C         2.484113         0.873164        -1.011509
 C         3.519602         0.995278         0.126294
 C         2.651033         0.887510         1.387571
 O         1.353742         0.713461         0.968641
 C         3.577330        -0.307463         0.949190
 O         4.775327        -0.745889         1.567906
 C         2.587546        -1.254768         0.184919
 H        -0.148477         0.324807        -1.640344
 H         0.318933        -1.523118        -1.277549
 H        -0.502724        -0.534878        -0.035096
 H         2.823949         0.384937        -1.980735
 H         2.064573         1.808156        -1.241368
 H         4.488582         1.645130         0.077002
 H         2.796599         1.571768         2.244828
 H         4.490309        -1.542420         2.047365
 H         3.198470        -1.601454        -0.649357
 H         2.008341        -2.025891         0.804486
