19
Iteration:   717
 C         0.241647        -0.549609        -0.658873
 C         1.543551        -0.061484        -0.122243
 C         2.529078         0.663078        -1.101251
 C         3.552560         0.975163        -0.045213
 C         2.743592         1.092669         1.251449
 O         1.376696         0.877260         0.990539
 C         3.575461        -0.345010         0.819878
 O         4.653424        -0.872208         1.524367
 C         2.459308        -1.160974         0.347353
 H        -0.030441        -1.534242        -0.327566
 H        -0.608731         0.232889        -0.452636
 H         0.424623        -0.520624        -1.722616
 H         2.951710        -0.065452        -1.832165
 H         1.960621         1.444211        -1.526883
 H         4.556306         1.554847        -0.252731
 H         2.902942         1.801879         2.074578
 H         4.290059        -1.522550         2.182144
 H         2.680021        -1.718548        -0.531841
 H         2.188130        -1.867051         1.185008
