19
Iteration:  3600
 C         0.260280        -0.465585        -0.781373
 C         1.553210        -0.071256        -0.257653
 C         2.482873         0.893476        -0.923548
 C         3.545256         1.045184         0.116667
 C         2.754427         0.800511         1.366688
 O         1.344940         0.624840         0.932935
 C         3.528568        -0.288923         0.828553
 O         4.664144        -0.805680         1.567133
 C         2.565551        -1.174109         0.139146
 H        -0.291436         0.447025        -1.140126
 H         0.282907        -1.217329        -1.592426
 H        -0.464325        -0.984213        -0.016236
 H         2.859541         0.773119        -1.982480
 H         1.801771         1.713822        -0.991812
 H         4.328386         1.729594         0.059270
 H         3.042522         1.457320         2.154967
 H         4.352946        -1.061507         2.497804
 H         3.050044        -1.647669        -0.689770
 H         2.150960        -1.949093         0.762834
