19
Iteration:   312charge 0 multiplicity 1
 C         0.174011        -0.712381        -0.679799
 C         1.461624         0.018185        -0.211115
 C         2.555869         0.775972        -1.108572
 C         3.672921         0.856985        -0.076284
 C         2.872191         1.035614         1.223055
 O         1.363987         0.895780         1.035216
 C         3.495447        -0.242785         0.940582
 O         4.704087        -0.863347         1.529683
 C         2.362054        -1.108703         0.338648
 H        -0.111454        -1.365296         0.223058
 H        -0.557493        -0.039972        -0.959989
 H         0.396020        -1.289451        -1.659721
 H         2.759044         0.062309        -1.961395
 H         2.259641         1.811626        -1.445170
 H         4.587021         1.283580        -0.287601
 H         3.066683         1.730359         2.022160
 H         4.403809        -1.395899         2.270026
 H         2.721549        -1.805927        -0.476018
 H         1.796618        -1.728478         1.045962
