19
Iteration:  1371charge 0 multiplicity 1
 C         0.091994        -0.356886        -0.711335
 C         1.509605        -0.122311        -0.164168
 C         2.533801         0.731836        -1.110617
 C         3.576849         0.843310        -0.081101
 C         2.764069         0.933599         1.317625
 O         1.406171         0.683077         0.957216
 C         3.560308        -0.312495         0.877422
 O         4.767355        -0.650677         1.501920
 C         2.470754        -1.241369         0.387925
 H        -0.534803        -0.869960         0.094729
 H        -0.434523         0.618481        -0.870998
 H         0.095758        -0.859821        -1.674759
 H         2.766571         0.235122        -1.986435
 H         2.056441         1.770083        -1.365310
 H         4.436509         1.543361        -0.163038
 H         2.842012         1.558780         2.186409
 H         4.559926        -1.326028         2.217280
 H         3.017084        -1.932907        -0.275278
 H         1.876185        -1.719626         1.224193
