19
Iteration:  4706
 C         0.173821        -0.311863        -0.848881
 C         1.576582        -0.151215        -0.333730
 C         2.498596         0.767628        -1.067173
 C         3.523705         1.051674         0.064185
 C         2.716888         0.796350         1.430475
 O         1.320514         0.612366         1.105719
 C         3.538424        -0.281629         0.965151
 O         4.696145        -0.786773         1.502478
 C         2.589444        -1.171348         0.173310
 H        -0.374034        -1.250975        -0.561883
 H        -0.384712         0.511743        -0.422109
 H         0.131122        -0.258498        -1.982376
 H         2.944245         0.399393        -1.954954
 H         2.011682         1.719024        -1.520303
 H         4.507230         1.604818         0.044207
 H         2.938615         1.153728         2.453881
 H         4.903928        -0.553123         2.396343
 H         3.178047        -1.719006        -0.597370
 H         2.003286        -1.975080         0.743123
