19
Iteration:  3735
 C         0.187029        -0.481327        -0.773922
 C         1.602260        -0.135949        -0.278388
 C         2.491644         0.908003        -0.987416
 C         3.560856         1.084349         0.175506
 C         2.671434         0.835107         1.424011
 O         1.319568         0.676965         0.960229
 C         3.574217        -0.345387         0.820976
 O         4.661581        -0.810268         1.536482
 C         2.599349        -1.208015         0.099954
 H        -0.524193         0.377493        -0.477355
 H         0.387704        -0.587593        -1.957224
 H        -0.120188        -1.366521        -0.186771
 H         3.004951         0.584683        -1.955604
 H         1.957440         1.879972        -1.010830
 H         4.469133         1.877967         0.124586
 H         2.826736         1.475976         2.228114
 H         4.298527        -1.095399         2.462748
 H         2.991868        -1.667767        -0.845405
 H         2.304987        -1.989045         0.825517
