19
Iteration:  4886
 C         0.163119        -0.459226        -0.654842
 C         1.591965        -0.054720        -0.297750
 C         2.538818         0.870390        -1.092500
 C         3.541415         1.057344         0.100904
 C         2.691054         0.864348         1.298637
 O         1.362760         0.671742         0.987843
 C         3.556926        -0.300149         0.860435
 O         4.600760        -0.860697         1.582632
 C         2.622556        -1.174926         0.141132
 H         0.019105        -1.395112        -0.172297
 H        -0.513358         0.257686        -0.180367
 H        -0.075434        -0.450736        -1.724200
 H         3.026198         0.176786        -1.917184
 H         2.153648         1.787147        -1.457556
 H         4.450485         1.764444         0.014807
 H         2.942705         1.340613         2.249819
 H         4.398170        -1.205526         2.493333
 H         3.041549        -1.791294        -0.670891
 H         2.206540        -1.853939         0.887413
