19
Iteration:  3003charge 0 multiplicity 1
 C         0.267045        -0.492933        -0.911302
 C         1.559159        -0.042996        -0.259261
 C         2.473644         0.934891        -1.009200
 C         3.506458         0.974440         0.118567
 C         2.675677         0.928211         1.356559
 O         1.325691         0.617425         1.023963
 C         3.571008        -0.331109         0.987444
 O         4.787829        -0.834138         1.503490
 C         2.485475        -1.166311         0.212821
 H         0.046282         0.164766        -1.704575
 H         0.383194        -1.411467        -1.479901
 H        -0.619559        -0.479749        -0.140065
 H         2.782185         0.349732        -1.880369
 H         1.880019         1.859912        -1.241289
 H         4.437351         1.720224        -0.054601
 H         2.879535         1.528191         2.228377
 H         4.643696        -1.101669         2.388746
 H         2.996171        -1.865947        -0.506189
 H         1.834331        -1.706794         0.932011
