19
Iteration:   291
 C         0.188401        -0.523912        -0.650978
 C         1.579181        -0.061385        -0.202255
 C         2.476627         0.762670        -1.135261
 C         3.554737         0.815119        -0.024898
 C         2.786833         0.937435         1.277403
 O         1.459900         0.903362         0.859808
 C         3.537548        -0.325947         0.931996
 O         4.699782        -0.751194         1.528718
 C         2.404074        -1.219445         0.415544
 H         0.041167        -1.463255        -0.049692
 H        -0.587446         0.179066        -0.489073
 H         0.151085        -0.612224        -1.794123
 H         2.715808         0.269146        -2.132489
 H         1.949379         1.683590        -1.330316
 H         4.414975         1.391647        -0.112970
 H         3.012879         1.648063         2.057774
 H         4.467623        -1.172950         2.369009
 H         2.681268        -1.982353        -0.382472
 H         1.815573        -1.738241         1.230385
