19
Iteration:  1888
 C         0.169209        -0.332287        -0.738597
 C         1.562733        -0.082009        -0.187140
 C         2.502241         0.800586        -1.054546
 C         3.448771         1.045603         0.006329
 C         2.733089         0.827692         1.348106
 O         1.401620         0.568583         1.103649
 C         3.582239        -0.306063         0.858807
 O         4.661954        -0.767103         1.554824
 C         2.542382        -1.248620         0.103795
 H        -0.566660        -0.273553         0.106042
 H        -0.088075         0.406582        -1.581762
 H         0.027748        -1.385287        -1.074469
 H         2.990605         0.208892        -1.821544
 H         2.009746         1.651642        -1.637301
 H         4.333598         1.603896        -0.019441
 H         3.011445         1.448883         2.218610
 H         5.092521        -0.063725         1.993328
 H         2.988600        -1.768385        -0.777856
 H         2.230298        -1.877377         0.949975
