19
Iteration:  1608charge 0 multiplicity 1
 C         0.090106        -0.425152        -0.709923
 C         1.494537        -0.118421        -0.212340
 C         2.436438         0.753901        -1.110665
 C         3.526312         0.943440        -0.107927
 C         2.863309         0.973608         1.241351
 O         1.436101         0.739146         1.035041
 C         3.534907        -0.327256         0.911757
 O         4.725088        -0.817525         1.622107
 C         2.568430        -1.231139         0.282231
 H        -0.461344        -1.267606        -0.195104
 H        -0.529510         0.514718        -0.524914
 H        -0.029254        -0.566447        -1.723773
 H         2.872238         0.159575        -2.010669
 H         1.932789         1.663468        -1.437149
 H         4.221527         1.754616        -0.375859
 H         3.120836         1.641338         2.089218
 H         4.498001        -0.587924         2.591057
 H         3.072094        -1.725517        -0.532995
 H         2.100264        -1.922041         1.000499
