19
Iteration:  2931
 C         0.131164        -0.460462        -0.892926
 C         1.519655        -0.087498        -0.292826
 C         2.506500         0.899034        -1.011729
 C         3.552976         0.976515         0.056250
 C         2.716732         0.892694         1.346605
 O         1.355458         0.601179         1.028600
 C         3.551522        -0.291565         0.964649
 O         4.767386        -0.757253         1.579559
 C         2.561412        -1.190823         0.210433
 H        -0.317747         0.258856        -1.647869
 H         0.139016        -1.382100        -1.600028
 H        -0.581137        -0.510879        -0.115268
 H         2.997224         0.428294        -1.941684
 H         2.115128         1.942968        -1.171161
 H         4.471971         1.556855         0.126326
 H         2.778200         1.471227         2.289749
 H         4.514030        -1.183911         2.365083
 H         2.955723        -1.840805        -0.592325
 H         2.024998        -1.855854         0.920645
