19
Iteration:   524charge 0 multiplicity 1
 C         0.113609        -0.210009        -0.770900
 C         1.539714        -0.266057        -0.170445
 C         2.472658         0.537954        -1.012301
 C         3.558643         0.873155        -0.090639
 C         2.746285         1.041843         1.298565
 O         1.443435         0.686452         0.920789
 C         3.557883        -0.245345         0.885055
 O         4.766585        -0.677166         1.548256
 C         2.489371        -1.279142         0.397628
 H        -0.633512        -0.893892        -0.349210
 H        -0.235884         0.915281        -0.586224
 H         0.112654        -0.261475        -1.809393
 H         2.698460        -0.216805        -1.862974
 H         1.972412         1.429544        -1.449238
 H         4.423078         1.462421        -0.290743
 H         2.920236         1.831853         1.988171
 H         4.364192        -0.661380         2.396144
 H         2.808871        -2.055294        -0.299490
 H         2.019511        -1.888420         1.239688
