19
Iteration:  1942charge 0 multiplicity 1
 C         0.244741        -0.561839        -0.777711
 C         1.578324        -0.029580        -0.261176
 C         2.486838         0.969611        -1.043590
 C         3.543236         1.038256         0.063916
 C         2.752042         0.867065         1.367123
 O         1.370086         0.592391         1.063880
 C         3.577528        -0.289664         0.888529
 O         4.725316        -0.773483         1.501880
 C         2.378703        -1.155354         0.228015
 H        -0.448746        -0.598828         0.154292
 H        -0.250393         0.092923        -1.611736
 H         0.382242        -1.635590        -1.184394
 H         2.780111         0.495738        -1.972637
 H         1.898922         1.968378        -1.296897
 H         4.390837         1.757574         0.057286
 H         2.873308         1.312149         2.374572
 H         5.049829        -1.610959         1.268656
 H         2.741987        -1.939580        -0.522442
 H         1.859279        -1.758803         1.031092
