19
Iteration:  2362
 C         0.206670        -0.585407        -0.864766
 C         1.508259        -0.109895        -0.250897
 C         2.490299         0.823371        -1.071272
 C         3.525171         1.037239         0.081331
 C         2.692950         0.924133         1.435593
 O         1.352189         0.774916         0.991582
 C         3.508914        -0.284296         1.015673
 O         4.742625        -0.818074         1.505434
 C         2.599535        -1.133111         0.230973
 H        -0.554659         0.037868        -0.524081
 H         0.306839        -0.509834        -1.935090
 H         0.024267        -1.655174        -0.602279
 H         2.785028         0.330392        -2.021808
 H         2.226913         1.837394        -1.433771
 H         4.332989         1.650300         0.010743
 H         2.941639         1.541049         2.312563
 H         4.540471        -1.686036         1.853651
 H         2.926454        -1.809929        -0.522255
 H         2.109649        -1.858910         0.922331
