19
Iteration:  2535charge 0 multiplicity 1
 C         0.234407        -0.402371        -0.921858
 C         1.525959        -0.115173        -0.265054
 C         2.519312         0.819298        -0.987429
 C         3.503399         1.085976         0.155315
 C         2.674954         0.801265         1.377691
 O         1.299134         0.601801         1.058422
 C         3.625114        -0.298411         0.845209
 O         4.744105        -0.759581         1.508404
 C         2.503827        -1.258925         0.236132
 H         0.006756         0.511379        -1.527797
 H         0.449551        -1.204984        -1.651314
 H        -0.648872        -0.518236        -0.203164
 H         2.958533         0.311473        -1.787010
 H         2.015071         1.746860        -1.458685
 H         4.323998         1.908007         0.037756
 H         2.999946         1.281295         2.302881
 H         4.668457        -0.198922         2.309363
 H         2.915853        -1.894439        -0.575633
 H         2.111519        -1.764776         1.133589
