19
Iteration:  1828
 C         0.291108        -0.549092        -0.824500
 C         1.504269        -0.092043        -0.111972
 C         2.490433         0.800340        -1.074528
 C         3.519025         0.968956         0.027130
 C         2.780267         0.933415         1.388715
 O         1.374413         0.836654         1.098760
 C         3.435310        -0.310353         0.914725
 O         4.714603        -0.763788         1.426198
 C         2.481086        -1.174158         0.296581
 H        -0.108186        -1.489644        -0.311204
 H        -0.532300         0.069844        -1.067867
 H         0.676650        -0.941843        -1.821676
 H         2.794450         0.180632        -1.988219
 H         2.002468         1.711259        -1.358087
 H         4.544237         1.522243        -0.176970
 H         3.010454         1.453651         2.324189
 H         4.769694        -1.693825         1.157785
 H         2.836732        -1.681022        -0.582015
 H         2.098499        -1.964220         0.969659
