19
Iteration:  4486charge 0 multiplicity 1
 C         0.179553        -0.487911        -0.793066
 C         1.559728        -0.127609        -0.264685
 C         2.575042         0.787138        -1.058528
 C         3.594937         1.029838         0.120549
 C         2.676517         0.883467         1.398136
 O         1.399155         0.743827         0.957951
 C         3.481250        -0.295503         0.943888
 O         4.715274        -0.783008         1.490498
 C         2.478277        -1.225910         0.240614
 H         0.070402        -0.135809        -1.830830
 H        -0.097444        -1.595771        -0.782715
 H        -0.633167        -0.115881        -0.129375
 H         3.244610         0.371039        -1.852565
 H         2.238456         1.825019        -1.583737
 H         4.231121         1.983797         0.206320
 H         2.899379         1.452482         2.283545
 H         4.410924        -1.198044         2.320478
 H         2.777904        -1.458578        -0.819787
 H         2.025113        -2.021102         0.897172
