19
Iteration:  2898
 C         0.396288        -0.606961        -0.864060
 C         1.580108        -0.082589        -0.197537
 C         2.513883         0.890130        -1.027437
 C         3.483795         1.076491         0.085488
 C         2.740216         0.882356         1.360675
 O         1.381451         0.802467         1.053033
 C         3.499390        -0.281736         0.920725
 O         4.576083        -0.854974         1.445258
 C         2.474133        -1.222315         0.231369
 H        -0.261338         0.285123        -0.925104
 H         0.849364        -1.096487        -1.824284
 H         0.001470        -1.382933        -0.225641
 H         2.965990         0.388836        -1.953478
 H         1.907188         1.788662        -1.442516
 H         4.412991         1.766974         0.105156
 H         2.871348         1.341173         2.323951
 H         4.433455        -1.085397         2.394292
 H         2.767150        -1.912036        -0.575759
 H         2.012006        -1.869908         0.966426
