19
Iteration:  2958charge 0 multiplicity 1
 C         0.238604        -0.266759        -0.829983
 C         1.544788        -0.134245        -0.226636
 C         2.513547         0.747527        -0.998491
 C         3.488338         0.958825         0.105351
 C         2.668227         0.818462         1.381052
 O         1.337227         0.613878         0.981041
 C         3.535752        -0.340641         0.908525
 O         4.740319        -0.590763         1.565643
 C         2.583276        -1.293891         0.131635
 H         0.009726         0.389795        -1.684859
 H        -0.057431        -1.185755        -1.255610
 H        -0.553483        -0.110603         0.005672
 H         3.015411         0.212680        -1.862437
 H         2.086007         1.707821        -1.284365
 H         4.486759         1.539684         0.176977
 H         2.722321         1.336414         2.312049
 H         4.580217        -1.213289         2.238420
 H         2.952281        -1.549904        -0.867662
 H         2.186493        -2.123984         0.746763
