19
Iteration:  2793charge 0 multiplicity 1
 C         0.210121        -0.489355        -0.897876
 C         1.533256        -0.039012        -0.295061
 C         2.471831         0.861101        -1.023679
 C         3.528224         0.981283         0.049673
 C         2.678250         0.890351         1.366440
 O         1.348626         0.673375         0.982481
 C         3.554178        -0.291526         0.975379
 O         4.804083        -0.824203         1.584791
 C         2.544258        -1.218666         0.257488
 H        -0.462025         0.464313        -1.035076
 H         0.369023        -0.812003        -1.905459
 H        -0.373728        -1.191767        -0.341198
 H         2.748944         0.377418        -1.998785
 H         1.958499         1.728870        -1.194614
 H         4.406420         1.611409         0.050490
 H         2.719512         1.543222         2.223602
 H         4.624776        -0.877543         2.592617
 H         2.964118        -1.651588        -0.687035
 H         1.904249        -1.870002         0.959408
