19
Iteration:  2442
 C         0.257454        -0.409724        -0.831705
 C         1.554043        -0.150990        -0.241429
 C         2.512059         0.841917        -1.033390
 C         3.579551         0.999470         0.075915
 C         2.653753         0.950670         1.357099
 O         1.314759         0.579435         1.077661
 C         3.552155        -0.275606         0.853496
 O         4.606525        -0.742644         1.647061
 C         2.580530        -1.268545         0.171488
 H        -0.408467         0.441811        -0.992391
 H         0.418137        -0.869825        -1.862726
 H        -0.341014        -1.080061        -0.208919
 H         2.856477         0.417493        -2.061801
 H         2.105770         1.782425        -1.212613
 H         4.515134         1.697456         0.138634
 H         2.818819         1.598427         2.226263
 H         5.353041        -0.896891         1.047469
 H         3.057965        -1.521830        -0.734928
 H         2.138528        -1.966931         0.789607
