19
Iteration:  1785charge 0 multiplicity 1
 C         0.224328        -0.437155        -0.653938
 C         1.588235        -0.121019        -0.233076
 C         2.434510         0.861550        -1.096661
 C         3.498396         1.019280        -0.046697
 C         2.732620         0.837103         1.267237
 O         1.369677         0.714602         0.961412
 C         3.589629        -0.280337         0.868030
 O         4.625293        -0.852302         1.617511
 C         2.552245        -1.254464         0.337207
 H        -0.329827        -1.340012        -0.396439
 H        -0.376935         0.334197        -0.238202
 H         0.209356        -0.215210        -1.792770
 H         2.894953         0.457670        -1.975082
 H         1.897560         1.781736        -1.294946
 H         4.468025         1.658900        -0.186552
 H         2.962591         1.478737         2.125116
 H         5.491488        -0.375392         1.426452
 H         2.903461        -1.964405        -0.407635
 H         2.053215        -1.877461         1.103031
