19
Iteration:  4414
 C         0.286552        -0.467468        -0.966146
 C         1.555732        -0.108893        -0.190101
 C         2.484504         0.824853        -1.015670
 C         3.556044         0.982623         0.011045
 C         2.790872         0.940777         1.398129
 O         1.279499         0.679339         1.104290
 C         3.572912        -0.228220         0.865761
 O         4.683916        -0.863662         1.510991
 C         2.463454        -1.228951         0.248261
 H         0.316094        -0.421456        -2.057580
 H        -0.134058        -1.394024        -0.599742
 H        -0.522380         0.277662        -0.575604
 H         2.859659         0.160728        -1.883207
 H         2.099999         1.715221        -1.290185
 H         4.266049         1.866181        -0.055022
 H         2.903941         1.512732         2.284268
 H         4.531766        -0.617625         2.413674
 H         3.072154        -1.704788        -0.513096
 H         2.207804        -1.785420         1.144578
