19
Iteration:   454
 C         0.271676        -0.641003        -0.609658
 C         1.537014        -0.052402        -0.200889
 C         2.502149         0.740146        -1.183382
 C         3.571030         0.894053        -0.047993
 C         2.789180         1.058666         1.265588
 O         1.400048         0.950638         0.988018
 C         3.561631        -0.256032         0.895719
 O         4.598258        -0.941970         1.495914
 C         2.444066        -1.172120         0.404405
 H        -0.107620        -1.474964         0.020685
 H        -0.463637         0.092812        -0.711555
 H         0.294789        -0.915871        -1.749459
 H         2.876564         0.127284        -2.095206
 H         2.156850         1.755281        -1.484546
 H         4.470209         1.644220        -0.215261
 H         3.027604         1.972503         1.844347
 H         4.341189        -1.217989         2.367149
 H         2.868722        -1.958976        -0.242429
 H         1.979631        -1.769589         1.163675
