19
Iteration:  2988
 C         0.209917        -0.389139        -0.933436
 C         1.548974        -0.105017        -0.280931
 C         2.559958         0.833219        -1.023661
 C         3.514497         1.069850         0.116380
 C         2.726335         0.807127         1.407503
 O         1.367752         0.564802         1.047714
 C         3.544832        -0.275711         0.837617
 O         4.755767        -0.711684         1.515847
 C         2.449480        -1.243842         0.285026
 H        -0.115620         0.352420        -1.799400
 H         0.048095        -1.451626        -1.191951
 H        -0.585832        -0.377434        -0.156733
 H         3.123373         0.506992        -2.027432
 H         2.146595         1.787355        -1.300769
 H         4.318368         1.706221         0.262131
 H         2.768117         1.421288         2.307578
 H         4.455949        -1.094329         2.404551
 H         2.747769        -1.792391        -0.556416
 H         2.012673        -1.826336         1.065679
