19
Iteration:  2470
 C         0.260842        -0.582360        -0.782461
 C         1.587874        -0.090705        -0.310376
 C         2.481448         0.933995        -1.063799
 C         3.517010         1.164969         0.191867
 C         2.728798         0.829722         1.404975
 O         1.365281         0.690928         0.963261
 C         3.554012        -0.275298         0.821008
 O         4.673856        -0.813961         1.606956
 C         2.501375        -1.191307         0.195972
 H        -0.341106         0.046580        -1.476623
 H         0.459327        -1.472304        -1.386638
 H        -0.444543        -0.972530         0.001048
 H         3.072539         0.495871        -1.832254
 H         1.942010         1.919381        -1.424552
 H         4.361229         1.851232         0.220379
 H         2.788820         1.197953         2.416397
 H         4.798003        -1.725721         1.481268
 H         2.904935        -1.828324        -0.663675
 H         1.795788        -1.761126         0.986075
