19
Iteration:  4904charge 0 multiplicity 1
 C         0.171495        -0.569208        -0.682949
 C         1.552002        -0.083084        -0.206014
 C         2.675216         0.903364        -1.103877
 C         3.636096         0.966125         0.038928
 C         2.696121         0.939477         1.415447
 O         1.339861         0.713543         0.943289
 C         3.494032        -0.210168         0.946110
 O         4.656282        -0.871459         1.435728
 C         2.488707        -1.198292         0.224769
 H         0.026158        -1.669838        -0.517867
 H        -0.589875         0.046419        -0.134992
 H         0.071578        -0.503969        -1.756532
 H         3.053715         0.428601        -1.920933
 H         2.177590         1.935489        -1.136991
 H         4.387046         1.723429         0.237436
 H         2.665698         1.781840         2.181186
 H         4.204691        -1.393274         2.183435
 H         3.054232        -1.534901        -0.662136
 H         1.987802        -2.022874         0.795769
