19
Iteration:  2671charge 0 multiplicity 1
 C         0.129174        -0.409450        -0.955720
 C         1.490459        -0.112357        -0.181094
 C         2.563590         0.814272        -1.051251
 C         3.506074         1.023609         0.117296
 C         2.731278         0.868888         1.357684
 O         1.330920         0.606804         1.019261
 C         3.569399        -0.311558         0.915181
 O         4.799052        -0.731438         1.577826
 C         2.521692        -1.234015         0.220879
 H        -0.520612         0.479113        -0.942830
 H         0.370628        -0.648169        -1.978643
 H        -0.417629        -1.065134        -0.377301
 H         2.968422         0.175795        -1.913451
 H         2.174048         1.678357        -1.462192
 H         4.378358         1.692328        -0.064431
 H         2.901394         1.446294         2.292991
 H         4.730616        -0.497959         2.538029
 H         2.929390        -1.766466        -0.667507
 H         1.806810        -1.934763         0.877911
