19
Iteration:  3317
 C         0.196723        -0.574628        -0.824541
 C         1.553470        -0.000080        -0.274013
 C         2.591533         0.927204        -1.017591
 C         3.503515         1.006904         0.071199
 C         2.708283         0.920623         1.364234
 O         1.316245         0.639395         1.015651
 C         3.550603        -0.322565         0.968301
 O         4.680499        -0.812025         1.597910
 C         2.555403        -1.129671         0.148457
 H        -0.536924         0.041497        -0.271774
 H         0.239876        -0.434877        -1.885504
 H         0.020936        -1.694061        -0.660363
 H         2.954072         0.484555        -2.021894
 H         2.019824         1.785416        -1.208708
 H         4.289656         1.670896         0.205328
 H         3.038896         1.595791         2.174293
 H         4.604292        -1.822814         1.693159
 H         3.131583        -1.523420        -0.740514
 H         1.912024        -2.026698         0.601289
