19
Iteration:  2346
 C         0.255759        -0.613608        -0.835139
 C         1.580011        -0.087212        -0.213936
 C         2.463577         0.850987        -1.009634
 C         3.507649         1.034728         0.082092
 C         2.742263         0.895311         1.346060
 O         1.348598         0.799916         0.993351
 C         3.585361        -0.247750         0.857219
 O         4.622596        -0.826093         1.610259
 C         2.555882        -1.192146         0.261454
 H        -0.606554         0.137435        -0.677378
 H         0.310807        -0.715502        -1.937836
 H        -0.150346        -1.513352        -0.427129
 H         2.968144         0.409689        -1.880634
 H         1.804303         1.696382        -1.320413
 H         4.454313         1.707453        -0.030558
 H         2.893485         1.394336         2.282487
 H         4.743323        -1.623213         1.130119
 H         3.136885        -1.517890        -0.642889
 H         2.156394        -1.989763         0.927031
