19
Iteration:  2516charge 0 multiplicity 1
 C         0.329583        -0.508781        -0.925092
 C         1.560302        -0.090515        -0.234287
 C         2.498556         0.875033        -1.015496
 C         3.459194         1.068147         0.126795
 C         2.704790         0.934402         1.454056
 O         1.409302         0.640574         1.047183
 C         3.433081        -0.300219         0.955121
 O         4.680155        -0.791837         1.438549
 C         2.555480        -1.236857         0.193599
 H        -0.027205         0.180331        -1.599331
 H         0.336792        -1.541249        -1.408099
 H        -0.476483        -0.506648        -0.122401
 H         2.878392         0.386210        -2.018867
 H         1.805134         1.721494        -1.262734
 H         4.516640         1.549876         0.079323
 H         2.832607         1.515361         2.382241
 H         4.751283        -0.882259         2.374436
 H         3.042818        -1.574681        -0.768211
 H         1.955176        -2.079643         0.844205
