19
Iteration:  1665
 C         0.173580        -0.508361        -0.756477
 C         1.528649        -0.039104        -0.155248
 C         2.551810         0.748442        -1.116219
 C         3.568208         1.063394         0.045831
 C         2.762800         0.929388         1.405820
 O         1.421168         0.771406         1.046083
 C         3.527234        -0.357952         0.778068
 O         4.660410        -0.805541         1.495373
 C         2.399340        -1.219501         0.322309
 H        -0.597743        -0.600707         0.073781
 H        -0.135268         0.118494        -1.563602
 H         0.382368        -1.539118        -1.118384
 H         3.013140         0.046049        -1.794737
 H         1.972004         1.529625        -1.761109
 H         4.421899         1.644623         0.078409
 H         2.996126         1.432342         2.337304
 H         5.434532        -0.462257         1.072359
 H         2.656998        -1.914206        -0.470995
 H         1.946071        -1.856906         1.127774
