19
Iteration:  1595charge 0 multiplicity 1
 C         0.116161        -0.469276        -0.709355
 C         1.561412        -0.115858        -0.142617
 C         2.449102         0.694335        -1.076332
 C         3.613769         1.002554        -0.056114
 C         2.815024         0.940743         1.276370
 O         1.452860         0.771960         1.040161
 C         3.609139        -0.246585         0.790513
 O         4.600668        -0.749267         1.535165
 C         2.476356        -1.227555         0.303663
 H        -0.157000        -1.459275        -0.316344
 H        -0.587074         0.352567        -0.360926
 H         0.168161        -0.561326        -1.784961
 H         2.703951        -0.014271        -1.952009
 H         1.988792         1.520068        -1.474248
 H         4.697637         1.427370        -0.155026
 H         3.082043         1.461164         2.197222
 H         4.291603        -0.988785         2.384753
 H         2.735136        -1.921756        -0.521645
 H         2.070889        -1.867675         1.070255
