19
Iteration:  2344
 C         0.266965        -0.593783        -0.828615
 C         1.575255        -0.096358        -0.203628
 C         2.465650         0.854828        -0.993420
 C         3.521791         1.046782         0.069963
 C         2.737667         0.912165         1.352382
 O         1.352931         0.782004         0.990104
 C         3.580228        -0.255781         0.850999
 O         4.609424        -0.823936         1.619003
 C         2.548984        -1.195036         0.250394
 H        -0.604275         0.128462        -0.697530
 H         0.324192        -0.768331        -1.979225
 H        -0.136176        -1.550616        -0.344805
 H         2.938877         0.450457        -1.973468
 H         1.861592         1.631174        -1.339437
 H         4.427585         1.718837        -0.019976
 H         2.910357         1.427130         2.272192
 H         4.818704        -1.594278         1.076375
 H         3.045948        -1.625669        -0.673595
 H         2.192277        -1.968864         0.896345
