19
Iteration:  4599
 C         0.122794        -0.361957        -0.710431
 C         1.548698        -0.135555        -0.275510
 C         2.541072         0.869735        -1.134233
 C         3.542749         1.103295         0.032752
 C         2.708089         0.881090         1.350937
 O         1.411226         0.578357         0.932318
 C         3.516727        -0.255892         0.979926
 O         4.677070        -0.779120         1.631434
 C         2.580107        -1.260249         0.189408
 H         0.130767        -0.826670        -1.753426
 H        -0.395618        -0.961828         0.027633
 H        -0.398753         0.617824        -0.864767
 H         3.007274         0.141925        -1.938186
 H         2.084713         1.816430        -1.385614
 H         4.530200         1.634823         0.082421
 H         2.764654         1.301273         2.418190
 H         4.455100        -1.653776         1.880241
 H         3.047485        -1.705660        -0.659554
 H         2.178376        -1.992576         0.907095
