19
Iteration:  3766
 C         0.168823        -0.370193        -0.782854
 C         1.563123        -0.042293        -0.290617
 C         2.496169         0.918232        -1.056235
 C         3.590381         1.008899         0.137379
 C         2.737726         0.769070         1.402179
 O         1.380373         0.483795         0.996316
 C         3.506751        -0.372751         0.922466
 O         4.706795        -0.625782         1.619140
 C         2.518578        -1.191322         0.081656
 H        -0.629061         0.283495        -0.409308
 H         0.071526        -0.465239        -1.889407
 H        -0.268842        -1.385193        -0.644607
 H         2.892980         0.532939        -2.058772
 H         2.102151         1.829124        -1.242855
 H         4.503665         1.742668         0.011432
 H         2.838797         1.418786         2.197115
 H         4.489915        -1.379936         2.123470
 H         3.006093        -1.748324        -0.707680
 H         2.160862        -1.949779         0.738859
