19
Iteration:  4588charge 0 multiplicity 1
 C         0.116961        -0.378068        -0.724848
 C         1.613511        -0.112555        -0.307477
 C         2.596620         0.823881        -1.098301
 C         3.527949         1.040179         0.110542
 C         2.679311         0.942310         1.337496
 O         1.368236         0.573272         0.988898
 C         3.519519        -0.316668         0.886516
 O         4.678017        -0.743580         1.611204
 C         2.569841        -1.235051         0.192677
 H        -0.231029        -0.621512        -1.765618
 H        -0.341025        -1.100811        -0.060161
 H        -0.286898         0.596877        -0.335875
 H         3.181272         0.353531        -2.022819
 H         2.258991         1.717382        -1.638828
 H         4.368585         1.703956        -0.151537
 H         2.823576         1.462490         2.342232
 H         4.468864        -1.580057         2.076133
 H         3.140733        -1.756533        -0.542651
 H         1.932107        -1.976146         0.668060
