19
Iteration:   788charge 0 multiplicity 1
 C         0.117265        -0.325364        -0.793852
 C         1.477758        -0.149731        -0.103833
 C         2.472420         0.595260        -1.072652
 C         3.568992         0.908579        -0.027915
 C         2.737533         0.841483         1.317889
 O         1.384939         0.826199         1.026207
 C         3.607475        -0.325907         0.830713
 O         4.772762        -0.679779         1.507263
 C         2.514940        -1.235074         0.335034
 H        -0.689601        -0.286139         0.012960
 H         0.007911         0.497013        -1.434876
 H         0.165109        -1.325683        -1.380987
 H         2.805247        -0.036436        -1.887423
 H         2.045900         1.611220        -1.350654
 H         4.484927         1.377661        -0.254238
 H         3.085314         1.563041         2.069110
 H         4.512782        -0.584026         2.459906
 H         2.591707        -1.723326        -0.698072
 H         2.054093        -1.902452         1.032959
