19
Iteration:  4887
 C         0.165155        -0.463447        -0.649617
 C         1.590899        -0.050732        -0.301706
 C         2.544864         0.874784        -1.091395
 C         3.549176         1.053422         0.098534
 C         2.685142         0.869581         1.304101
 O         1.359838         0.672028         0.986648
 C         3.555470        -0.300420         0.859971
 O         4.598637        -0.862292         1.576101
 C         2.621262        -1.177031         0.152310
 H         0.020522        -1.405837        -0.162985
 H        -0.527742         0.234258        -0.187158
 H        -0.078382        -0.425229        -1.731061
 H         3.014044         0.195050        -1.943448
 H         2.164098         1.784198        -1.496563
 H         4.431826         1.782618         0.043145
 H         2.951405         1.342637         2.220221
 H         4.402891        -1.220389         2.491698
 H         3.055998        -1.782542        -0.654945
 H         2.222182        -1.890824         0.873792
