19
Iteration:  3086
 C         0.151864        -0.283366        -0.874846
 C         1.583492        -0.192263        -0.253730
 C         2.503552         0.790938        -0.946865
 C         3.558873         0.977693         0.136260
 C         2.709535         0.921237         1.365996
 O         1.355395         0.630835         0.936857
 C         3.509715        -0.267047         0.926502
 O         4.699877        -0.649950         1.567698
 C         2.610789        -1.358542         0.163190
 H        -0.586533         0.466378        -0.322879
 H         0.136257        -0.296903        -1.964931
 H        -0.344508        -1.254001        -0.637169
 H         2.853261         0.405471        -1.994621
 H         1.845911         1.584573        -1.140114
 H         4.565440         1.551525        -0.047922
 H         2.807140         1.388654         2.320837
 H         4.492336        -1.330671         2.293847
 H         3.136003        -1.832148        -0.665642
 H         2.217745        -2.193826         0.815418
