19
Iteration:  4834
 C         0.252682        -0.342736        -0.930492
 C         1.558174        -0.070653        -0.228715
 C         2.426980         0.888405        -0.965432
 C         3.585504         0.867820         0.047936
 C         2.698423         0.845455         1.466008
 O         1.317960         0.588415         1.068819
 C         3.554207        -0.299728         0.858244
 O         4.783380        -0.691288         1.460880
 C         2.448815        -1.252893         0.241626
 H        -0.602427        -0.558614        -0.290081
 H         0.095412         0.542089        -1.540355
 H         0.413798        -1.250877        -1.601239
 H         2.687787         0.453506        -1.926763
 H         1.930579         1.839584        -0.892001
 H         4.552356         1.358904        -0.293208
 H         2.938372         1.501676         2.276209
 H         4.700164        -0.937268         2.432720
 H         2.944594        -1.800985        -0.563177
 H         1.958965        -1.889740         0.981294
