19
Iteration:  1391charge 0 multiplicity 1
 C         0.219474        -0.432270        -0.748641
 C         1.563517        -0.229361        -0.239127
 C         2.439511         0.768323        -1.003746
 C         3.569295         0.882038         0.004878
 C         2.754552         1.035622         1.242368
 O         1.409388         0.808412         0.976766
 C         3.483771        -0.340298         0.994478
 O         4.770352        -0.675110         1.422094
 C         2.452780        -1.303436         0.394360
 H        -0.432664        -0.522397         0.221899
 H        -0.319510         0.500388        -1.284123
 H         0.082116        -1.231375        -1.405164
 H         2.764900         0.570514        -1.990967
 H         1.888315         1.735707        -1.115093
 H         4.575019         1.232800        -0.144429
 H         3.181231         1.681805         1.984503
 H         4.613186        -1.467380         1.895045
 H         2.680375        -1.965916        -0.459816
 H         1.841256        -1.985538         1.106712
