19
Iteration:  4129
 C         0.260842        -0.513754        -0.897833
 C         1.584092        -0.085472        -0.242831
 C         2.480577         1.041436        -0.938588
 C         3.494800         1.117789         0.239348
 C         2.618788         0.726978         1.531277
 O         1.305211         0.612137         1.039521
 C         3.584863        -0.289908         0.864587
 O         4.756585        -0.783962         1.339546
 C         2.541413        -1.199126         0.159319
 H        -0.088475         0.124075        -1.705552
 H         0.510703        -1.421317        -1.438286
 H        -0.484689        -0.703443        -0.184240
 H         3.102973         0.802838        -1.916836
 H         1.945861         1.942722        -1.011013
 H         4.466043         1.543473         0.123451
 H         2.598425         1.293099         2.505208
 H         4.528839        -1.610928         1.715480
 H         3.080987        -1.642559        -0.664002
 H         2.102940        -1.908812         0.855939
