19
Iteration:  1378
 C         0.098197        -0.384290        -0.696123
 C         1.553263        -0.158290        -0.218717
 C         2.505135         0.761284        -1.094418
 C         3.632671         0.867260        -0.043822
 C         2.796630         0.956101         1.263744
 O         1.365509         0.723464         0.979449
 C         3.507313        -0.304689         0.934654
 O         4.761533        -0.650884         1.474376
 C         2.440789        -1.300153         0.385020
 H        -0.563585        -0.821752         0.056805
 H        -0.151760         0.715164        -1.009234
 H         0.088925        -0.980898        -1.583951
 H         2.668143         0.350384        -2.167359
 H         1.962047         1.649018        -1.079133
 H         4.511108         1.396310        -0.085722
 H         2.824404         1.696925         2.089406
 H         4.798633        -1.445546         2.110062
 H         3.040963        -1.943265        -0.276928
 H         1.922937        -1.778338         1.243328
