19
Iteration:   884
 C         0.243366        -0.576421        -0.626413
 C         1.565799        -0.030372        -0.191546
 C         2.477392         0.726279        -1.089441
 C         3.645443         0.876661        -0.141133
 C         2.817614         1.014519         1.251129
 O         1.364419         0.795007         0.982721
 C         3.524413        -0.216189         0.914088
 O         4.603536        -0.836733         1.563377
 C         2.470007        -1.110780         0.311210
 H         0.033065        -1.479763         0.054299
 H        -0.449648         0.222203        -0.360695
 H         0.153648        -0.839515        -1.702011
 H         2.577968         0.143044        -2.103860
 H         2.121741         1.696938        -1.183566
 H         4.581806         1.446197        -0.294509
 H         2.854604         1.694841         2.115783
 H         4.332198        -1.782913         1.793701
 H         3.003191        -1.809119        -0.413891
 H         1.915718        -1.576523         1.148070
