19
Iteration:   878charge 0 multiplicity 1
 C         0.223931        -0.615918        -0.604681
 C         1.554983        -0.033729        -0.185379
 C         2.474111         0.717179        -1.123172
 C         3.631241         0.820874        -0.072720
 C         2.861188         1.044933         1.250863
 O         1.340816         0.856231         0.995445
 C         3.537715        -0.212571         0.946341
 O         4.621318        -0.834453         1.548498
 C         2.480201        -1.141581         0.285286
 H        -0.105350        -1.449431        -0.043154
 H        -0.594344         0.140839        -0.558445
 H         0.279052        -0.944166        -1.721354
 H         2.687671         0.185970        -1.964010
 H         2.194219         1.859182        -1.399722
 H         4.507542         1.519481        -0.238540
 H         2.933659         1.637717         2.130555
 H         4.429777        -1.724692         1.796386
 H         2.807445        -1.548509        -0.693827
 H         1.846581        -1.723673         0.961673
