19
Iteration:  3812
 C         0.295243        -0.423050        -1.006726
 C         1.579277        -0.128371        -0.211770
 C         2.458011         0.887976        -0.945578
 C         3.458456         1.041496         0.151392
 C         2.665578         0.845743         1.529648
 O         1.312981         0.610553         1.027466
 C         3.573240        -0.241352         0.905917
 O         4.772707        -0.848798         1.325904
 C         2.532851        -1.188154         0.273861
 H        -0.315063         0.534585        -1.016215
 H         0.539758        -1.007549        -1.927010
 H        -0.396687        -1.081435        -0.588582
 H         2.911714         0.510270        -1.855201
 H         2.044870         1.828396        -1.119895
 H         4.231219         1.728117         0.304905
 H         2.799105         1.501017         2.447856
 H         4.668287        -0.758241         2.290862
 H         2.910411        -1.848231        -0.516644
 H         2.023152        -1.889923         0.888819
