19
Iteration:  3903charge 0 multiplicity 1
 C         0.161192        -0.334132        -0.866398
 C         1.602337        -0.154884        -0.302555
 C         2.467280         0.951210        -0.991991
 C         3.541162         1.053104         0.098442
 C         2.726168         0.816488         1.396134
 O         1.332287         0.433965         1.070871
 C         3.580549        -0.305318         0.858548
 O         4.684574        -0.703208         1.585887
 C         2.604987        -1.161737         0.078027
 H        -0.221438         0.648328        -1.040939
 H         0.260508        -1.221075        -1.433132
 H        -0.320416        -0.652671         0.105140
 H         2.627999         0.612489        -1.946114
 H         1.778155         1.858575        -1.015457
 H         4.412899         1.858266         0.070305
 H         3.023905         1.210335         2.309615
 H         4.369424        -1.499258         2.157677
 H         3.092693        -1.706787        -0.745376
 H         2.043482        -1.938574         0.714053
