19
Iteration:  3455charge 0 multiplicity 1
 C         0.254581        -0.524470        -0.851456
 C         1.583831        -0.068605        -0.296817
 C         2.538989         0.951020        -0.986051
 C         3.555010         1.046074         0.093938
 C         2.711482         0.925188         1.352940
 O         1.319931         0.627895         1.077032
 C         3.523596        -0.255555         0.910219
 O         4.673136        -0.890226         1.527443
 C         2.552202        -1.184298         0.168006
 H        -0.332891         0.220744        -1.484800
 H         0.300377        -1.460694        -1.383836
 H        -0.528140        -0.786435        -0.114643
 H         2.852386         0.610887        -1.912068
 H         1.888722         1.867861        -1.160378
 H         4.481132         1.498746        -0.146584
 H         2.626599         1.593984         2.245504
 H         4.461116        -1.268470         2.348333
 H         3.039414        -1.613639        -0.673443
 H         2.227002        -1.896490         0.850870
