19
Iteration:   117
 C         0.032154        -0.336324        -0.765563
 C         1.449998        -0.025858        -0.226583
 C         2.532019         0.700571        -1.154310
 C         3.624514         0.799825        -0.077427
 C         2.796275         0.885156         1.255425
 O         1.390947         0.644415         1.038090
 C         3.565208        -0.372882         0.915561
 O         4.849285        -0.563689         1.588215
 C         2.426713        -1.227776         0.384263
 H        -0.798526        -0.506718         0.016194
 H        -0.280866         0.465966        -1.411725
 H         0.057078        -1.372056        -1.319493
 H         2.725152         0.061727        -2.125597
 H         2.214210         1.687703        -1.390452
 H         4.479415         1.472305        -0.061833
 H         3.004752         1.547743         2.075785
 H         4.772061        -0.730294         2.539352
 H         2.611107        -1.925453        -0.498283
 H         1.797127        -1.819338         1.106453
