19
Iteration:   823charge 0 multiplicity 1
 C         0.179469        -0.304786        -0.741531
 C         1.555809        -0.115624        -0.192772
 C         2.543882         0.710813        -1.093446
 C         3.537539         0.937388        -0.093216
 C         2.741059         0.932508         1.222894
 O         1.377579         0.634705         1.057242
 C         3.540811        -0.287032         0.921899
 O         4.746980        -0.735767         1.436159
 C         2.465867        -1.266402         0.455899
 H        -0.562455        -0.351277         0.014492
 H        -0.115890         0.444451        -1.433638
 H        -0.011511        -1.268063        -1.323853
 H         2.746448         0.285031        -2.007126
 H         2.104665         1.790208        -1.369408
 H         4.609852         1.383461        -0.028597
 H         2.777635         1.740413         1.936612
 H         4.631089        -0.614676         2.421741
 H         2.703943        -2.121784        -0.213391
 H         1.894760        -1.714974         1.275323
