19
Iteration:  3374
 C         0.221755        -0.360500        -0.924689
 C         1.582329        -0.080766        -0.285307
 C         2.472386         0.888843        -1.014173
 C         3.548109         0.950912         0.041947
 C         2.664032         0.905113         1.437899
 O         1.308591         0.551827         1.062760
 C         3.587158        -0.275055         0.910392
 O         4.714345        -0.777253         1.653151
 C         2.521820        -1.249669         0.206902
 H        -0.325402         0.539564        -1.140172
 H         0.302967        -0.674003        -2.074781
 H        -0.350703        -1.014844        -0.258037
 H         2.750822         0.404425        -2.000590
 H         1.886583         1.745772        -1.205808
 H         4.487055         1.687758         0.015877
 H         2.739354         1.527225         2.325341
 H         5.519240        -0.841045         1.127568
 H         3.039212        -1.848045        -0.622461
 H         1.947461        -2.029669         0.845356
