19
Iteration:    20
 C         0.360331        -0.613467        -0.626343
 C         1.573056        -0.026923        -0.134428
 C         2.478864         0.714545        -1.053806
 C         3.601390         0.854959        -0.026299
 C         2.775280         0.979770         1.254810
 O         1.346537         1.012561         0.950358
 C         3.484675        -0.303555         0.844792
 O         4.638586        -0.802266         1.460366
 C         2.422569        -1.224258         0.360878
 H         0.043090        -1.442758         0.087340
 H        -0.421272         0.070063        -0.608338
 H         0.517725        -0.916973        -1.706819
 H         2.700193         0.100033        -2.060724
 H         2.019160         1.601652        -1.373054
 H         4.533777         1.488620        -0.261778
 H         3.084532         1.456664         2.131932
 H         4.430815        -1.553436         2.054527
 H         2.691044        -1.821748        -0.527702
 H         1.823107        -1.661031         1.182336
