19
Iteration:  1241charge 0 multiplicity 1
 C         0.113093        -0.347375        -0.768400
 C         1.504787        -0.100308        -0.205635
 C         2.452388         0.731555        -1.047780
 C         3.502338         0.939729        -0.014320
 C         2.789304         1.003162         1.259272
 O         1.400124         0.681098         0.989762
 C         3.566434        -0.349220         0.976117
 O         4.784378        -0.702963         1.574710
 C         2.493880        -1.289964         0.327750
 H        -0.730883        -0.604110        -0.060430
 H        -0.147057         0.457713        -1.423318
 H         0.112543        -1.221111        -1.351654
 H         2.816577         0.054033        -1.763245
 H         2.077560         1.718841        -1.570979
 H         4.297583         1.569933        -0.144651
 H         3.051503         1.684725         2.103430
 H         5.299784        -1.304617         1.071241
 H         2.688447        -1.975758        -0.461500
 H         2.055611        -1.834168         1.181750
