19
Iteration:  1555charge 0 multiplicity 1
 C         0.139628        -0.554101        -0.778489
 C         1.472952        -0.074804        -0.281464
 C         2.451058         0.712862        -1.105566
 C         3.581444         0.901260         0.051888
 C         2.778421         0.996196         1.353846
 O         1.413555         0.880214         0.960971
 C         3.481502        -0.279729         0.996603
 O         4.889311        -0.812070         1.456381
 C         2.419515        -1.168187         0.393987
 H        -0.167980        -1.557259        -0.323035
 H        -0.703563         0.003597        -0.296828
 H         0.064458        -0.503395        -1.823211
 H         2.802591         0.259837        -2.089848
 H         1.975660         1.751014        -1.378524
 H         4.605627         1.307255        -0.120824
 H         2.886965         1.832822         2.078354
 H         4.609850        -1.787755         1.624114
 H         2.838502        -1.904787        -0.279037
 H         1.894972        -1.640160         1.287878
