19
Iteration:  4241
 C         0.325446        -0.563448        -0.917086
 C         1.528451        -0.103473        -0.180623
 C         2.552046         0.939945        -0.916812
 C         3.495055         1.072033         0.289472
 C         2.657047         0.902490         1.515885
 O         1.255379         0.674380         1.021141
 C         3.554229        -0.283378         0.816201
 O         4.743234        -0.836581         1.296335
 C         2.542279        -1.207081         0.137497
 H        -0.512823        -0.413399        -0.312076
 H         0.153401        -0.002202        -1.776477
 H         0.461801        -1.648283        -1.107503
 H         3.110910         0.624158        -1.847983
 H         1.972959         1.880306        -1.154418
 H         4.338721         1.893989         0.275098
 H         2.638170         1.364386         2.519787
 H         4.652977        -1.345348         2.165059
 H         2.762858        -1.788007        -0.759854
 H         2.124916        -1.812411         0.907614
