19
Iteration:  4170
 C         0.166869        -0.340769        -0.785220
 C         1.559565        -0.114750        -0.253462
 C         2.501156         0.926398        -1.017003
 C         3.430360         1.111849         0.180155
 C         2.694492         0.716090         1.500568
 O         1.348057         0.479799         1.035076
 C         3.522333        -0.265139         0.834065
 O         4.761596        -0.725074         1.563924
 C         2.656574        -1.213183        -0.043353
 H        -0.316141         0.713698        -0.887766
 H         0.328285        -0.635167        -1.923457
 H        -0.359769        -1.117481        -0.217167
 H         2.860638         0.540349        -2.005442
 H         1.880798         1.796585        -1.232105
 H         4.403926         1.685405         0.048569
 H         2.887723         1.122715         2.538031
 H         4.416779        -1.057035         2.470427
 H         3.082362        -1.631469        -1.017399
 H         2.224792        -2.101293         0.584604
