19
Iteration:   162
 C         0.142483        -0.634181        -0.680973
 C         1.493343        -0.094326        -0.141325
 C         2.526582         0.710311        -1.052035
 C         3.635218         0.998099        -0.024588
 C         2.789513         1.056544         1.255988
 O         1.404472         0.893342         0.963070
 C         3.528071        -0.170880         0.931389
 O         4.611233        -0.944550         1.440060
 C         2.545267        -1.142623         0.328170
 H        -0.717393        -0.628713         0.079189
 H        -0.237989        -0.042898        -1.534625
 H         0.276418        -1.755299        -0.952295
 H         2.882599        -0.022081        -1.929538
 H         2.145256         1.613656        -1.439932
 H         4.408670         1.621455        -0.161626
 H         2.951854         1.733242         2.159139
 H         4.343042        -1.548354         2.164042
 H         3.112636        -1.704121        -0.459198
 H         2.196883        -1.868646         1.148567
