19
Iteration:  2894
 C         0.375664        -0.601913        -0.890471
 C         1.564484        -0.061878        -0.203708
 C         2.505596         0.886232        -1.047490
 C         3.487847         1.059522         0.114610
 C         2.728440         0.914764         1.361780
 O         1.390393         0.791565         1.056042
 C         3.483831        -0.303304         0.926299
 O         4.596436        -0.867489         1.453960
 C         2.488739        -1.194752         0.248050
 H        -0.347915         0.160716        -0.950466
 H         0.680234        -1.035067        -1.814043
 H         0.092302        -1.521862        -0.293561
 H         2.911480         0.397616        -1.853880
 H         1.966981         1.764972        -1.466487
 H         4.451791         1.700226        -0.014319
 H         2.915579         1.425970         2.299599
 H         4.530711        -1.112223         2.378707
 H         2.904414        -1.806593        -0.678799
 H         2.023092        -1.893947         1.052217
