19
Iteration:  4303charge 0 multiplicity 1
 C         0.202349        -0.353069        -0.874255
 C         1.546521        -0.116692        -0.191274
 C         2.429331         0.937508        -0.908204
 C         3.536804         1.111834         0.056308
 C         2.749504         0.756476         1.324129
 O         1.310389         0.534510         1.000010
 C         3.603181        -0.377051         0.847731
 O         4.653714        -0.666052         1.641942
 C         2.623593        -1.220367         0.156704
 H        -0.158157        -1.326337        -0.462028
 H        -0.554317         0.528149        -0.843381
 H         0.317995        -0.435266        -1.987614
 H         2.826225         0.645891        -1.944762
 H         1.924556         1.824856        -1.018151
 H         4.479790         1.672334        -0.121162
 H         2.919310         1.195229         2.314690
 H         4.725932        -1.676303         1.530520
 H         3.000256        -1.905424        -0.647624
 H         2.332378        -2.036753         0.910942
