19
Iteration:  3899
 C         0.166910        -0.350355        -0.840610
 C         1.585360        -0.150690        -0.270948
 C         2.441946         0.963333        -1.000591
 C         3.526495         1.046352         0.088589
 C         2.725816         0.795543         1.362634
 O         1.371644         0.425485         1.072847
 C         3.552872        -0.267575         0.867377
 O         4.688268        -0.727978         1.605181
 C         2.617734        -1.156412         0.057065
 H        -0.268091         0.629826        -1.180913
 H         0.246622        -1.277499        -1.468462
 H        -0.357474        -0.580646         0.037517
 H         2.826418         0.673765        -2.050247
 H         1.930264         1.855608        -0.932176
 H         4.361255         1.674725         0.145367
 H         2.946982         1.339907         2.343422
 H         4.348051        -1.404657         2.152661
 H         3.050289        -1.605464        -0.832270
 H         2.092420        -1.792421         0.702987
