19
Iteration:  2565
 C         0.198503        -0.351155        -0.883892
 C         1.554386        -0.147287        -0.339711
 C         2.502126         0.857414        -1.028206
 C         3.517734         0.978650         0.110901
 C         2.692951         0.865228         1.392447
 O         1.350488         0.556228         1.028100
 C         3.495808        -0.307124         0.936675
 O         4.736130        -0.718863         1.577457
 C         2.563683        -1.289433         0.230187
 H        -0.255632         0.727618        -0.830074
 H         0.186869        -0.639084        -1.909344
 H        -0.446233        -1.079057        -0.405955
 H         2.954665         0.409254        -1.952139
 H         1.913312         1.763288        -1.280226
 H         4.356412         1.637311        -0.160658
 H         2.926752         1.529524         2.228563
 H         5.025970        -0.015666         2.234667
 H         3.132355        -1.813266        -0.539405
 H         2.053955        -1.962941         0.837204
