19
Iteration:  4754charge 0 multiplicity 1
 C         0.232440        -0.528838        -0.882089
 C         1.569473        -0.063786        -0.236993
 C         2.421627         0.975991        -0.976775
 C         3.583054         1.020679         0.055483
 C         2.727409         0.836887         1.423728
 O         1.385761         0.715451         1.047598
 C         3.563776        -0.305193         0.791377
 O         4.677125        -0.815975         1.580534
 C         2.546653        -1.232878         0.163476
 H        -0.353569        -0.634856         0.021217
 H        -0.400635         0.237393        -1.357935
 H         0.139030        -1.455779        -1.395582
 H         2.701837         0.826439        -2.098752
 H         1.888323         1.823586        -1.064526
 H         4.531634         1.463328        -0.040390
 H         2.934963         1.309188         2.386267
 H         4.248865        -1.433221         2.265193
 H         2.928739        -1.732902        -0.716379
 H         2.185047        -1.982849         0.820763
