19
Iteration:  1346
 C         0.152364        -0.422676        -0.700959
 C         1.507401        -0.098964        -0.136110
 C         2.546548         0.587402        -1.127795
 C         3.540197         1.085601        -0.053147
 C         2.832405         0.931269         1.281467
 O         1.397795         0.785684         1.103795
 C         3.583405        -0.354172         0.775438
 O         4.690113        -0.742569         1.562646
 C         2.431862        -1.239080         0.217818
 H        -0.349231        -1.239562        -0.149888
 H        -0.555138         0.519658        -0.478560
 H         0.143194        -0.522368        -1.766004
 H         2.958264        -0.177890        -1.832230
 H         2.013463         1.249295        -1.746070
 H         4.353525         1.725583        -0.129635
 H         3.063917         1.484149         2.230960
 H         4.504764        -0.582333         2.487343
 H         2.936508        -1.928325        -0.489348
 H         1.936592        -1.844035         1.056318
