19
Iteration:  4392charge 0 multiplicity 1
 C         0.291657        -0.514607        -0.871962
 C         1.557799        -0.065329        -0.211825
 C         2.506393         0.891223        -1.037452
 C         3.513465         1.006984         0.164638
 C         2.647135         0.940079         1.376372
 O         1.380534         0.685833         0.992630
 C         3.531206        -0.248644         0.988417
 O         4.671772        -0.903992         1.381062
 C         2.466719        -1.206520         0.283741
 H         0.731209        -0.949983        -1.769383
 H        -0.178938        -1.296325        -0.270268
 H        -0.517342         0.265567        -1.101235
 H         3.011203         0.240669        -1.853524
 H         2.105483         1.753821        -1.385164
 H         4.558023         1.487770         0.064271
 H         2.740079         1.538967         2.276981
 H         5.210397        -0.413489         2.077091
 H         2.854080        -1.806983        -0.560359
 H         2.007774        -1.727864         1.165306
