19
Iteration:  4351
 C         0.227292        -0.488656        -0.827398
 C         1.522354        -0.035726        -0.230697
 C         2.548616         0.904332        -0.999876
 C         3.557657         0.997720         0.099393
 C         2.645924         0.896658         1.437151
 O         1.336121         0.634405         0.981853
 C         3.537987        -0.291507         0.832538
 O         4.648680        -0.853443         1.565047
 C         2.572304        -1.205596         0.197505
 H         0.306830        -1.541093        -1.034787
 H        -0.533858        -0.330639        -0.120529
 H        -0.036944         0.108840        -1.685683
 H         2.901998         0.384143        -1.870685
 H         2.162432         1.871407        -1.350569
 H         4.378507         1.737292         0.262770
 H         2.698837         1.402421         2.382752
 H         5.403122        -0.466585         1.148846
 H         2.990613        -1.850517        -0.569247
 H         2.157033        -1.899823         0.915823
