19
Iteration:  1147charge 0 multiplicity 1
 C         0.258380        -0.503751        -0.618074
 C         1.575366        -0.066391        -0.153559
 C         2.549496         0.783373        -1.075130
 C         3.615333         0.983938        -0.008899
 C         2.778082         1.032325         1.238395
 O         1.385308         0.739804         0.926252
 C         3.518243        -0.268905         0.855566
 O         4.580483        -0.886654         1.522471
 C         2.384991        -1.220183         0.376464
 H        -0.134203        -1.254486         0.057909
 H        -0.398719         0.324179        -0.637696
 H         0.195915        -1.142460        -1.613768
 H         3.035395         0.291867        -2.050907
 H         1.819367         1.484292        -1.288983
 H         4.418737         1.555363        -0.274705
 H         2.833860         1.681641         2.133003
 H         5.420926        -0.510008         1.132395
 H         2.740366        -2.013034        -0.376662
 H         1.991315        -1.709032         1.291646
