19
Iteration:  2708charge 0 multiplicity 1
 C         0.226040        -0.345111        -0.839902
 C         1.612525        -0.146797        -0.196579
 C         2.534429         0.810309        -0.972681
 C         3.563064         0.991388         0.099298
 C         2.675746         0.881606         1.335299
 O         1.309389         0.586955         0.957472
 C         3.529479        -0.305622         0.880125
 O         4.664182        -0.620470         1.535273
 C         2.563600        -1.306844         0.216325
 H         0.091189         0.593983        -1.391568
 H        -0.014454        -1.169508        -1.480493
 H        -0.615042        -0.463171        -0.076548
 H         2.995016         0.505732        -1.915692
 H         1.866640         1.770983        -1.092081
 H         4.479313         1.608365         0.006992
 H         2.909314         1.283386         2.297389
 H         4.533446        -1.366165         2.103088
 H         2.972127        -1.882299        -0.663945
 H         2.284093        -2.047839         0.993032
