19
Iteration:  3784charge 0 multiplicity 1
 C         0.219762        -0.348171        -0.936224
 C         1.568853        -0.121675        -0.227909
 C         2.528816         0.834727        -0.958007
 C         3.507099         1.038560         0.098516
 C         2.657858         0.845037         1.399180
 O         1.330457         0.578917         1.123816
 C         3.576304        -0.325354         0.848178
 O         4.745709        -0.659537         1.529613
 C         2.529373        -1.259453         0.121894
 H        -0.410896         0.411637        -0.512185
 H         0.410708        -0.457518        -1.998041
 H        -0.298154        -1.340341        -0.628109
 H         2.977718         0.300897        -1.802479
 H         2.042267         1.880411        -1.249725
 H         4.380976         1.662424         0.129463
 H         2.923618         1.253559         2.402974
 H         4.437502        -1.303059         2.141001
 H         2.843391        -1.747142        -0.823928
 H         1.957999        -2.089477         0.670931
