19
Iteration:  4604charge 0 multiplicity 1
 C         0.150680        -0.347108        -0.734991
 C         1.545971        -0.127078        -0.273528
 C         2.529388         0.852933        -1.079783
 C         3.540050         1.075060         0.029580
 C         2.743147         0.834732         1.357155
 O         1.390569         0.616269         0.933947
 C         3.555307        -0.246651         0.966542
 O         4.660376        -0.775796         1.628211
 C         2.578718        -1.234903         0.183568
 H         0.317761        -1.048779        -1.554209
 H        -0.505980        -0.912479        -0.027751
 H        -0.458662         0.501581        -1.010974
 H         2.848699         0.327545        -1.955619
 H         1.858336         1.688695        -1.440825
 H         4.474474         1.624547         0.205002
 H         2.737651         1.400768         2.245309
 H         4.412944        -1.737820         1.823389
 H         3.003529        -1.774623        -0.714143
 H         2.318992        -1.953260         0.982180
