19
Iteration:  1905charge 0 multiplicity 1
 C         0.224561        -0.360193        -0.722796
 C         1.553009        -0.163933        -0.151581
 C         2.382375         0.770427        -1.012129
 C         3.585441         1.031952         0.053864
 C         2.731221         0.881372         1.339063
 O         1.347184         0.655939         1.039169
 C         3.578579        -0.315250         0.768275
 O         4.642319        -0.794726         1.625498
 C         2.597424        -1.232077         0.129149
 H        -0.541142        -0.112555        -0.052262
 H         0.083556         0.297668        -1.539371
 H         0.078145        -1.400348        -1.162582
 H         2.580994         0.314898        -1.997307
 H         1.903732         1.730441        -1.060239
 H         4.303713         1.821184        -0.190065
 H         2.927890         1.265838         2.322779
 H         5.363186        -0.204416         1.459883
 H         2.934058        -1.454385        -0.890186
 H         2.237508        -2.151448         0.567148
