19
Iteration:   254charge 0 multiplicity 1
 C         0.081563        -0.221147        -0.766145
 C         1.475894        -0.097604        -0.144734
 C         2.553600         0.498294        -1.173319
 C         3.523841         0.877914        -0.139124
 C         2.772334         0.945801         1.291312
 O         1.446896         0.627351         1.034365
 C         3.564600        -0.252275         0.904972
 O         4.726979        -0.674100         1.568952
 C         2.505175        -1.214001         0.402174
 H        -0.437958        -1.132692        -0.523940
 H        -0.564508         0.633250        -0.381548
 H         0.114869        -0.217633        -1.819522
 H         2.870099        -0.293889        -1.806497
 H         2.254420         1.413236        -1.891906
 H         4.407907         1.649915        -0.100137
 H         2.983742         1.805641         1.968333
 H         4.422794        -0.709119         2.527073
 H         2.840333        -1.821579        -0.406168
 H         2.145843        -1.783730         1.208027
