19
Iteration:  1487
 C         0.049506        -0.404894        -0.730341
 C         1.491261        -0.090541        -0.177025
 C         2.496250         0.783898        -1.054846
 C         3.580098         0.913600        -0.064668
 C         2.803735         0.918072         1.255785
 O         1.421977         0.727396         1.033529
 C         3.609847        -0.366169         0.873357
 O         4.745067        -0.703330         1.607502
 C         2.456615        -1.293899         0.201137
 H        -0.597616        -0.753342         0.075491
 H        -0.596329         0.404449        -1.188630
 H         0.121840        -1.160185        -1.445107
 H         2.861506         0.173713        -2.012202
 H         1.968868         1.656922        -1.348994
 H         4.555280         1.450438         0.009613
 H         3.062293         1.597830         2.043455
 H         4.737816        -0.218276         2.443915
 H         2.890721        -1.952256        -0.575370
 H         2.018782        -1.863464         1.027730
