19
Iteration:     5
 C         0.207792        -0.452254        -0.687804
 C         1.549792        -0.085554        -0.170225
 C         2.488976         0.672314        -1.072384
 C         3.580633         0.888452        -0.062097
 C         2.781382         0.982801         1.244667
 O         1.413778         0.829109         0.966632
 C         3.523178        -0.339930         0.895107
 O         4.680962        -0.740950         1.486029
 C         2.447555        -1.184957         0.354136
 H        -0.284217        -1.051053         0.082526
 H        -0.384906         0.501482        -0.908171
 H         0.224863        -1.153273        -1.511747
 H         2.771749         0.020851        -1.867271
 H         2.028856         1.657811        -1.407797
 H         4.451479         1.512018        -0.068620
 H         3.098097         1.519015         2.184977
 H         4.425028        -1.147576         2.358116
 H         2.753347        -1.983907        -0.344991
 H         1.990348        -1.804799         1.143556
