19
Iteration:  4308
 C         0.182271        -0.367674        -0.895415
 C         1.577293        -0.100060        -0.191090
 C         2.409497         0.912695        -0.951137
 C         3.544283         1.055319         0.092632
 C         2.765708         0.765228         1.361342
 O         1.323578         0.564054         1.030363
 C         3.630716        -0.321902         0.803021
 O         4.611187        -0.667476         1.655629
 C         2.651829        -1.273203         0.154045
 H        -0.315750        -1.321378        -0.721956
 H        -0.552650         0.351687        -0.670258
 H         0.334654        -0.298104        -1.975043
 H         2.668587         0.606641        -1.952270
 H         1.893721         1.966691        -1.056428
 H         4.426426         1.791596        -0.137977
 H         2.973674         1.232872         2.321473
 H         4.844941        -1.584162         1.601027
 H         2.920179        -1.859473        -0.723749
 H         2.248028        -2.033244         0.797290
