19
Iteration:  1000
 C         0.222803        -0.590117        -0.717696
 C         1.489284        -0.086536        -0.161803
 C         2.508081         0.781420        -1.100046
 C         3.617416         0.999220        -0.070205
 C         2.807483         1.025163         1.239280
 O         1.381685         0.785883         1.069289
 C         3.526478        -0.265479         0.835455
 O         4.681408        -0.853186         1.524975
 C         2.470809        -1.186615         0.352239
 H        -0.438572        -0.541865         0.180569
 H        -0.313064         0.052656        -1.519970
 H         0.202632        -1.582586        -1.059590
 H         2.872033         0.256130        -1.934386
 H         1.949322         1.693938        -1.436964
 H         4.441871         1.765479        -0.134832
 H         2.863524         1.712400         2.114376
 H         4.341176        -1.688712         1.982074
 H         2.970087        -1.676993        -0.427447
 H         1.936706        -1.789910         1.128737
