19
Iteration:  2096charge 0 multiplicity 1
 C         0.291347        -0.563175        -0.852094
 C         1.557019        -0.113941        -0.200812
 C         2.467604         0.876757        -0.996060
 C         3.501369         1.161475         0.133792
 C         2.741051         0.872569         1.380118
 O         1.384759         0.742036         1.021167
 C         3.522728        -0.281854         0.820006
 O         4.708789        -0.869918         1.364923
 C         2.442699        -1.243318         0.308698
 H         0.193239        -1.731824        -0.980791
 H        -0.582109        -0.277164        -0.179744
 H         0.063808        -0.216872        -1.843942
 H         3.146143         0.420465        -1.619930
 H         1.932752         1.811740        -1.379230
 H         4.285614         1.863995         0.176825
 H         3.008798         1.418528         2.300360
 H         4.653243        -0.989887         2.336840
 H         2.905305        -1.861844        -0.508999
 H         2.148014        -1.649873         1.316649
