19
Iteration:  2664
 C         0.181547        -0.435260        -0.918547
 C         1.481890        -0.147687        -0.222813
 C         2.561711         0.789352        -0.980138
 C         3.532853         0.989524         0.075453
 C         2.716137         0.888148         1.385430
 O         1.324794         0.677789         1.014228
 C         3.550624        -0.281473         0.897334
 O         4.774341        -0.773149         1.553557
 C         2.523296        -1.216760         0.225438
 H        -0.524205         0.464151        -0.886252
 H         0.340009        -0.615396        -1.963666
 H        -0.413849        -1.350058        -0.556769
 H         2.921180         0.242785        -1.897735
 H         2.169291         1.842459        -1.254381
 H         4.398810         1.800104         0.059917
 H         2.771794         1.556619         2.232533
 H         4.729269        -0.427969         2.422734
 H         2.937915        -1.764482        -0.656126
 H         2.047035        -2.015438         0.800533
