19
Iteration:  1069charge 0 multiplicity 1
 C         0.129574        -0.377937        -0.710508
 C         1.537670        -0.123531        -0.238510
 C         2.495122         0.733640        -1.150708
 C         3.561184         0.958375        -0.058110
 C         2.814074         0.914527         1.294531
 O         1.457723         0.649627         0.973085
 C         3.554634        -0.250492         0.894460
 O         4.620270        -0.684045         1.606198
 C         2.474957        -1.228510         0.446808
 H        -0.486945        -1.026647        -0.037633
 H        -0.405663         0.543600        -0.752297
 H         0.006066        -0.751829        -1.738967
 H         2.653402        -0.026641        -2.033867
 H         2.040312         1.584346        -1.540997
 H         4.527907         1.441551        -0.219125
 H         3.043601         1.362126         2.246126
 H         5.279472        -1.223924         1.060109
 H         2.847521        -1.893491        -0.374091
 H         1.978912        -1.723021         1.320677
