19
Iteration:  2263
 C         0.231972        -0.420285        -0.874936
 C         1.559220        -0.105278        -0.270433
 C         2.550876         0.766859        -1.061188
 C         3.531559         1.017428         0.097059
 C         2.645473         0.879318         1.457460
 O         1.325836         0.634919         1.070061
 C         3.528017        -0.268702         0.918796
 O         4.735682        -0.696977         1.418045
 C         2.537251        -1.237306         0.280357
 H         0.177176         0.190631        -1.812769
 H         0.074488        -1.486597        -1.102727
 H        -0.619123        -0.053446        -0.192820
 H         2.944657         0.210690        -1.972534
 H         1.976029         1.740959        -1.358459
 H         4.472458         1.661540         0.006121
 H         2.793953         1.521409         2.325536
 H         4.699272        -1.371797         2.119796
 H         3.113215        -1.854456        -0.428421
 H         1.909573        -1.905168         0.969480
