19
Iteration:   320
 C         0.183354        -0.704897        -0.718758
 C         1.524814        -0.033321        -0.175875
 C         2.575571         0.731999        -1.029660
 C         3.629671         0.922843        -0.071383
 C         2.848919         1.082641         1.217493
 O         1.382355         0.915248         1.060557
 C         3.559291        -0.267924         0.885094
 O         4.625633        -0.866899         1.500091
 C         2.363979        -1.156666         0.330316
 H        -0.278489        -1.103768         0.219405
 H        -0.521693         0.032817        -1.095810
 H         0.346888        -1.498129        -1.463881
 H         2.856384         0.105209        -1.824153
 H         2.142150         1.641173        -1.616688
 H         4.498246         1.453794        -0.285702
 H         3.283559         1.793527         2.006319
 H         4.238930        -1.353221         2.208322
 H         2.706957        -1.758559        -0.503960
 H         1.912171        -1.728122         1.067316
