19
Iteration:  4795charge 0 multiplicity 1
 C         0.260404        -0.464975        -0.852267
 C         1.541355        -0.094382        -0.241524
 C         2.641342         0.835622        -0.986302
 C         3.550342         1.021245         0.190126
 C         2.606417         0.871312         1.523173
 O         1.239660         0.702885         1.032943
 C         3.563549        -0.212617         0.868027
 O         4.748047        -0.832218         1.277625
 C         2.519127        -1.170303         0.275879
 H        -0.460994        -0.409253         0.024902
 H        -0.084085         0.049581        -1.755486
 H         0.287186        -1.503514        -1.181510
 H         3.150573         0.156010        -1.710509
 H         2.309706         1.793472        -1.596426
 H         4.447027         1.592055         0.151746
 H         2.595117         1.419209         2.435310
 H         4.363983        -1.583719         1.743219
 H         2.821135        -1.800377        -0.592371
 H         2.113859        -1.825340         1.111784
