19
Iteration:   273
 C         0.100917        -0.386976        -0.710407
 C         1.547184        -0.230861        -0.199895
 C         2.551488         0.604507        -1.039847
 C         3.632754         0.998531        -0.049493
 C         2.802880         1.022553         1.214333
 O         1.390465         0.818661         0.974403
 C         3.529862        -0.337822         0.846243
 O         4.675011        -0.692637         1.530483
 C         2.427539        -1.312488         0.390693
 H        -0.411006        -1.235109        -0.325711
 H        -0.471207         0.586752        -0.317471
 H         0.041021        -0.195112        -1.774510
 H         3.034913         0.117687        -1.916965
 H         2.111023         1.472016        -1.528385
 H         4.679444         1.471931        -0.343999
 H         3.094770         1.445769         2.128116
 H         4.484292        -0.904216         2.462396
 H         2.858509        -2.041927        -0.264006
 H         1.958743        -1.777488         1.305220
