19
Iteration:  2762
 C         0.359064        -0.627594        -0.829837
 C         1.605116        -0.011761        -0.193078
 C         2.583163         0.924701        -0.980170
 C         3.560186         1.087127         0.129210
 C         2.677466         0.928259         1.367716
 O         1.354970         0.696945         1.030336
 C         3.495030        -0.229375         0.795736
 O         4.575786        -0.854444         1.426755
 C         2.501537        -1.241655         0.263672
 H        -0.291725        -0.152890        -1.527316
 H         0.600608        -1.404321        -1.428099
 H        -0.444040        -0.868884        -0.132277
 H         2.968477         0.352399        -1.799780
 H         2.052562         1.857292        -1.330140
 H         4.487944         1.544249         0.065795
 H         2.787267         1.454827         2.307576
 H         4.317850        -1.018808         2.299456
 H         2.826608        -2.025937        -0.523420
 H         1.961998        -1.924655         1.040614
