19
Iteration:  4514charge 0 multiplicity 1
 C         0.333855        -0.487083        -0.972177
 C         1.543952        -0.058158        -0.169011
 C         2.441484         0.873364        -0.997160
 C         3.579687         0.987716         0.014450
 C         2.774966         0.950550         1.347856
 O         1.268900         0.644007         1.028980
 C         3.518115        -0.250779         0.891675
 O         4.672736        -0.919626         1.427520
 C         2.485908        -1.136813         0.452060
 H         0.455335        -0.199890        -2.030229
 H         0.352795        -1.570520        -0.970772
 H        -0.577250        -0.193102        -0.489597
 H         2.901477         0.506655        -1.916834
 H         2.132368         1.801272        -1.277042
 H         4.512746         1.592739        -0.110293
 H         3.116513         1.497361         2.286254
 H         4.544789        -0.804652         2.422101
 H         2.798189        -1.796166        -0.366609
 H         2.092301        -1.730475         1.262704
