19
Iteration:  1862
 C         0.077678        -0.455427        -0.788777
 C         1.551559        -0.120443        -0.244437
 C         2.552585         0.837747        -1.008791
 C         3.545773         1.019448         0.067410
 C         2.714552         0.894302         1.362038
 O         1.363683         0.633724         0.996847
 C         3.597625        -0.251568         0.883414
 O         4.781417        -0.788929         1.406857
 C         2.470791        -1.198823         0.294868
 H        -0.565244        -0.625266         0.074544
 H        -0.362760         0.377994        -1.343469
 H         0.056850        -1.425121        -1.457166
 H         2.986381         0.528920        -1.960366
 H         1.944141         1.773826        -1.125991
 H         4.512207         1.595196         0.036998
 H         2.871412         1.380289         2.313466
 H         4.730965        -0.977598         2.327148
 H         2.875176        -1.953033        -0.390232
 H         2.045304        -1.653526         1.196254
