19
Iteration:  1638charge 0 multiplicity 1
 C         0.132830        -0.368750        -0.669249
 C         1.546233        -0.126117        -0.212883
 C         2.455296         0.768580        -1.060558
 C         3.632931         0.905097        -0.060701
 C         2.760083         0.948651         1.300343
 O         1.381755         0.667732         0.972217
 C         3.534711        -0.326563         0.837268
 O         4.667775        -0.781778         1.604999
 C         2.531183        -1.230443         0.276374
 H        -0.402833        -0.622121         0.241629
 H        -0.124278         0.662884        -1.073715
 H        -0.167578        -1.129327        -1.396569
 H         2.795253         0.217985        -1.998526
 H         1.916112         1.638711        -1.330280
 H         4.475034         1.694212        -0.231346
 H         2.948879         1.512631         2.227419
 H         5.135034         0.017360         1.866849
 H         2.966606        -1.872772        -0.526999
 H         2.083710        -1.906795         0.987066
