19
Iteration:   557charge 0 multiplicity 1
 C         0.208573        -0.443665        -0.715248
 C         1.516057        -0.005946        -0.166960
 C         2.538857         0.675137        -1.123890
 C         3.558868         0.888133        -0.066163
 C         2.793869         0.949274         1.272534
 O         1.405915         0.760695         1.016070
 C         3.529722        -0.276738         0.871543
 O         4.744054        -0.728279         1.535591
 C         2.385959        -1.237417         0.362434
 H        -0.470867        -0.797510         0.093898
 H        -0.410336         0.309201        -1.360630
 H         0.364592        -1.252989        -1.368385
 H         2.736273        -0.219873        -1.839558
 H         2.110367         1.519055        -1.729685
 H         4.509135         1.482105        -0.249244
 H         2.947752         1.602147         2.109206
 H         4.558621        -0.894256         2.496854
 H         2.678239        -1.934697        -0.439134
 H         1.739034        -1.666973         1.175930
