19
Iteration:    11charge 0 multiplicity 1
 C         0.298947        -0.493893        -0.669852
 C         1.578088        -0.068579        -0.164295
 C         2.462579         0.677621        -1.035287
 C         3.587530         0.855947        -0.057550
 C         2.772189         0.994614         1.232902
 O         1.376943         0.909928         0.961561
 C         3.489048        -0.352011         0.875494
 O         4.659068        -0.757117         1.470083
 C         2.454896        -1.174055         0.339923
 H        -0.071361        -1.160355         0.137284
 H        -0.375194         0.336163        -0.722606
 H         0.311662        -1.127149        -1.584244
 H         2.692308        -0.049471        -1.919093
 H         2.009084         1.591445        -1.353301
 H         4.433575         1.563594        -0.023039
 H         3.128331         1.342680         2.165118
 H         4.433797        -1.312637         2.257755
 H         2.734233        -1.946703        -0.373682
 H         1.948177        -1.701996         1.172457
