19
Iteration:  2492
 C         0.272540        -0.636512        -0.845111
 C         1.514934        -0.051238        -0.235491
 C         2.560573         0.960776        -0.936693
 C         3.573327         0.985091         0.095261
 C         2.644413         0.913105         1.383918
 O         1.261130         0.694629         0.979237
 C         3.560762        -0.273737         0.883659
 O         4.714648        -0.836821         1.497242
 C         2.597643        -1.133978         0.203751
 H        -0.232121        -0.049644        -1.641365
 H         0.415657        -1.661234        -1.223489
 H        -0.525934        -0.697902        -0.013037
 H         2.948572         0.615794        -1.883968
 H         2.045952         2.003765        -1.058445
 H         4.389461         1.755142         0.171826
 H         2.774067         1.545353         2.257103
 H         4.468789        -1.740895         1.924587
 H         2.999955        -1.600843        -0.746065
 H         1.952101        -1.810440         0.924643
