19
Iteration:  2468
 C         0.267829        -0.580378        -0.778052
 C         1.573431        -0.098208        -0.308893
 C         2.482794         0.927864        -1.054405
 C         3.516636         1.165466         0.164443
 C         2.729592         0.827073         1.418148
 O         1.377722         0.679552         0.958070
 C         3.545449        -0.291452         0.829348
 O         4.654771        -0.796718         1.606609
 C         2.515670        -1.187356         0.200397
 H        -0.393680         0.140714        -1.478387
 H         0.484927        -1.404278        -1.431585
 H        -0.425147        -0.931027         0.001142
 H         3.079669         0.524105        -1.772387
 H         1.938414         1.855375        -1.458378
 H         4.316701         1.794626         0.226605
 H         2.840447         1.172290         2.447898
 H         4.827102        -1.750905         1.414637
 H         2.953514        -1.773281        -0.635941
 H         1.820007        -1.659812         0.931275
