19
Iteration:  3182charge 0 multiplicity 1
 C         0.239089        -0.605129        -0.800200
 C         1.490180         0.026712        -0.223531
 C         2.547950         0.933108        -1.044645
 C         3.574920         1.020390         0.176697
 C         2.702900         0.940409         1.388800
 O         1.289597         0.653652         1.026135
 C         3.543224        -0.289802         0.874584
 O         4.674412        -0.851662         1.535724
 C         2.589699        -1.160816         0.125362
 H        -0.215701         0.023197        -1.665620
 H         0.496919        -1.552780        -1.330189
 H        -0.579248        -0.737721        -0.160303
 H         3.015841         0.452525        -1.877279
 H         2.144312         1.959899        -1.517812
 H         4.570437         1.764738         0.260776
 H         2.876353         1.471518         2.308389
 H         4.396299        -1.645132         2.013974
 H         3.038124        -1.654919        -0.808130
 H         2.111720        -2.044068         0.755069
