19
Iteration:  3164
 C         0.346724        -0.595209        -0.854509
 C         1.605769        -0.090091        -0.235277
 C         2.464257         0.870732        -0.943286
 C         3.547781         1.038348         0.190257
 C         2.644358         0.870816         1.382882
 O         1.342450         0.803536         0.980260
 C         3.520471        -0.232942         0.912006
 O         4.662349        -0.879521         1.460739
 C         2.535031        -1.191366         0.161910
 H        -0.120204         0.217592        -1.515992
 H         0.514857        -1.433245        -1.472689
 H        -0.215816        -0.759247         0.119051
 H         2.904135         0.545576        -1.969891
 H         1.908352         1.719798        -0.977975
 H         4.300707         1.714692        -0.101429
 H         2.757296         1.469699         2.316370
 H         4.431898        -1.513281         2.144992
 H         2.970946        -1.535629        -0.755007
 H         2.036298        -2.006972         0.716695
