19
Iteration:  1935charge 0 multiplicity 1
 C         0.159945        -0.541053        -0.792804
 C         1.546984        -0.035883        -0.315575
 C         2.453154         0.957049        -1.037456
 C         3.523133         1.042218         0.082315
 C         2.760415         0.884759         1.380779
 O         1.399936         0.600112         1.074706
 C         3.595764        -0.347075         0.855540
 O         4.712865        -0.764555         1.568784
 C         2.472556        -1.192148         0.245479
 H        -0.593010        -0.646330         0.010045
 H        -0.222435        -0.001270        -1.630318
 H         0.281119        -1.526294        -1.083428
 H         2.809043         0.697154        -2.123883
 H         2.060566         1.928605        -1.131417
 H         4.445268         1.696214        -0.069084
 H         3.008242         1.478755         2.240575
 H         5.037025        -1.469018         0.979107
 H         2.910375        -1.781809        -0.545847
 H         1.854383        -1.715673         0.976192
