19
Iteration:  3901
 C         0.160014        -0.341364        -0.856054
 C         1.595500        -0.158197        -0.286329
 C         2.453736         0.959755        -1.000063
 C         3.532614         1.048216         0.093105
 C         2.727431         0.806437         1.379272
 O         1.351036         0.428070         1.072038
 C         3.565798        -0.286810         0.864201
 O         4.686697        -0.714528         1.595823
 C         2.611152        -1.155867         0.066632
 H        -0.244408         0.645296        -1.090960
 H         0.271607        -1.251897        -1.425496
 H        -0.317562        -0.604736         0.055899
 H         2.716887         0.647952        -1.974242
 H         1.872363         1.822738        -0.965820
 H         4.407442         1.782665         0.109368
 H         2.993700         1.273519         2.324836
 H         4.351590        -1.463477         2.160706
 H         3.066610        -1.649648        -0.783645
 H         2.063659        -1.848182         0.701432
