19
Iteration:   599
 C         0.218106        -0.630389        -0.591850
 C         1.526775        -0.053339        -0.197533
 C         2.422730         0.847881        -1.138014
 C         3.605320         1.006227        -0.038670
 C         2.771033         1.009686         1.318763
 O         1.428600         0.931450         0.843556
 C         3.509201        -0.332529         0.893045
 O         4.662837        -0.913780         1.529207
 C         2.530323        -1.242073         0.394793
 H        -0.419613        -0.636160         0.296330
 H        -0.315485        -0.066252        -1.492615
 H         0.300060        -1.613090        -0.984401
 H         2.977717         0.221984        -2.014929
 H         2.059743         1.802167        -1.459490
 H         4.538176         1.571876        -0.302412
 H         2.866190         1.706519         2.139013
 H         4.193270        -1.454859         2.242073
 H         2.835153        -1.949659        -0.363703
 H         2.042025        -1.877726         1.210998
