19
Iteration:  3023charge 0 multiplicity 1
 C         0.299102        -0.600248        -0.936856
 C         1.544895        -0.097470        -0.144650
 C         2.505875         0.912425        -0.965342
 C         3.549970         0.983247         0.099832
 C         2.685741         0.927539         1.414100
 O         1.326156         0.789340         0.997718
 C         3.489198        -0.264902         0.911623
 O         4.654562        -0.882419         1.421104
 C         2.567996        -1.205439         0.250632
 H        -0.251105         0.176784        -1.547545
 H         0.713716        -1.330519        -1.590403
 H        -0.347013        -0.915180        -0.015027
 H         2.892104         0.595174        -2.054239
 H         1.886847         1.827942        -0.965170
 H         4.561638         1.612608         0.100525
 H         2.955483         1.530389         2.248266
 H         4.429226        -1.060316         2.381153
 H         3.012723        -1.493789        -0.665407
 H         2.274642        -2.072395         0.781033
