19
Iteration:  3471charge 0 multiplicity 1
 C         0.260644        -0.469219        -0.843661
 C         1.531555        -0.107047        -0.187056
 C         2.424904         0.885853        -0.998085
 C         3.544525         1.030871         0.105778
 C         2.753257         0.842332         1.401778
 O         1.390010         0.665950         0.978502
 C         3.550538        -0.311810         0.841858
 O         4.634512        -0.746064         1.592193
 C         2.576303        -1.191197         0.136160
 H        -0.152883         0.369866        -1.374769
 H         0.426747        -1.174587        -1.715682
 H        -0.396222        -0.832738        -0.025804
 H         2.852879         0.323430        -1.971023
 H         2.007273         1.857653        -1.162224
 H         4.430609         1.782946         0.119326
 H         3.075120         1.163419         2.363248
 H         4.227649        -1.447632         2.132341
 H         2.984325        -1.680639        -0.802132
 H         1.989975        -1.990349         0.755478
