19
Iteration:  1961
 C         0.292170        -0.540023        -0.772146
 C         1.570577        -0.035249        -0.168189
 C         2.520616         0.833547        -0.983989
 C         3.516531         1.064860         0.139617
 C         2.669245         0.847700         1.421787
 O         1.311565         0.729863         1.043265
 C         3.545580        -0.297079         0.783689
 O         4.708351        -0.762274         1.345821
 C         2.509234        -1.207408         0.274363
 H        -0.342200        -0.995461        -0.081361
 H        -0.190311         0.232933        -1.362955
 H         0.585335        -1.397764        -1.487148
 H         2.927225         0.353296        -1.813327
 H         2.121136         1.793560        -1.392045
 H         4.402066         1.620337         0.058892
 H         2.944088         1.406077         2.336381
 H         4.428819        -1.627574         1.653539
 H         2.824958        -1.797572        -0.603984
 H         2.029241        -1.813559         1.053197
