19
Iteration:  4912charge 0 multiplicity 1
 C         0.183314        -0.603645        -0.759712
 C         1.544943        -0.115340        -0.195707
 C         2.629612         0.878675        -1.035426
 C         3.621899         0.964963         0.106518
 C         2.662090         0.966753         1.376603
 O         1.364099         0.756812         0.958896
 C         3.511068        -0.259518         0.957790
 O         4.659568        -0.855807         1.422458
 C         2.478820        -1.116896         0.210142
 H         0.115515        -1.675439        -0.421823
 H        -0.656662        -0.092147        -0.267761
 H         0.062922        -0.330947        -1.829848
 H         3.024524         0.455873        -1.961833
 H         2.196058         1.941617        -1.234767
 H         4.542446         1.432049        -0.018256
 H         2.807944         1.676788         2.184760
 H         4.637004        -1.578491         2.073919
 H         2.848498        -1.768036        -0.571468
 H         1.999703        -1.809748         0.947160
