19
Iteration:  1336
 C         0.174370        -0.447140        -0.678293
 C         1.523081        -0.147496        -0.082638
 C         2.548462         0.678511        -1.107965
 C         3.546735         1.024544        -0.099932
 C         2.807867         1.003961         1.261012
 O         1.466004         0.777232         1.052105
 C         3.511000        -0.282811         0.858333
 O         4.623391        -0.812372         1.527946
 C         2.467384        -1.267271         0.273418
 H        -0.281393        -1.451435        -0.386505
 H        -0.587125         0.397964        -0.344258
 H         0.203260        -0.551319        -1.724329
 H         3.005127         0.058854        -1.834374
 H         2.072163         1.566450        -1.592851
 H         4.302897         1.694538        -0.271888
 H         3.163144         1.528686         2.175987
 H         4.506746        -0.281956         2.352225
 H         2.801249        -1.785427        -0.671780
 H         1.978295        -2.118909         0.859306
