19
Iteration:   132
 C         0.196000        -0.393167        -0.694040
 C         1.546825        -0.098558        -0.200349
 C         2.464208         0.744902        -1.073577
 C         3.544760         0.939685        -0.069840
 C         2.793126         0.904496         1.213317
 O         1.425661         0.736175         0.972355
 C         3.543044        -0.328333         0.906982
 O         4.732683        -0.673860         1.548153
 C         2.413037        -1.312197         0.360719
 H        -0.441978        -0.258881         0.124868
 H        -0.144412         0.232819        -1.540273
 H         0.176688        -1.351061        -1.092312
 H         2.765243         0.145569        -1.931380
 H         2.013509         1.662850        -1.498172
 H         4.377924         1.571441        -0.245315
 H         3.024992         1.579666         2.077360
 H         4.492262        -1.115771         2.360439
 H         2.843116        -2.073655        -0.219021
 H         1.890797        -1.625688         1.240788
