19
Iteration:  2952charge 0 multiplicity 1
 C         0.188276        -0.287349        -0.834889
 C         1.548875        -0.131605        -0.246734
 C         2.527536         0.771632        -1.056596
 C         3.508558         0.943830         0.145600
 C         2.672643         0.828752         1.385120
 O         1.335934         0.608056         0.994495
 C         3.573318        -0.343690         0.953551
 O         4.751975        -0.603617         1.571238
 C         2.528547        -1.270834         0.135298
 H        -0.023925         0.430368        -1.635156
 H         0.105352        -1.322401        -1.333610
 H        -0.463989        -0.053644        -0.052224
 H         2.856144         0.270178        -1.945733
 H         1.964143         1.726879        -1.265796
 H         4.373882         1.619822         0.018192
 H         2.774710         1.523524         2.242135
 H         4.607050        -1.282861         2.297348
 H         3.093297        -1.599895        -0.807387
 H         2.272414        -2.268352         0.586893
