19
Iteration:  4902
 C         0.173727        -0.553773        -0.661581
 C         1.548774        -0.065918        -0.224487
 C         2.676698         0.902094        -1.104846
 C         3.640721         0.976564         0.032606
 C         2.700534         0.937987         1.417151
 O         1.334719         0.703115         0.943469
 C         3.496492        -0.215368         0.937109
 O         4.651016        -0.875606         1.447968
 C         2.502584        -1.217778         0.231226
 H        -0.011067        -1.673888        -0.532943
 H        -0.568424         0.061644        -0.122144
 H         0.065672        -0.543169        -1.767611
 H         3.035169         0.432391        -1.969757
 H         2.156076         1.943136        -1.209853
 H         4.282983         1.730815         0.284793
 H         2.686841         1.736183         2.166424
 H         4.156926        -1.302964         2.151532
 H         3.083600        -1.482139        -0.642836
 H         2.007924        -2.065554         0.776013
