19
Iteration:  2688
 C         0.228672        -0.286534        -0.864511
 C         1.554108        -0.106901        -0.338506
 C         2.524369         0.781791        -1.077560
 C         3.510851         1.021585         0.068638
 C         2.709495         0.783964         1.397204
 O         1.375531         0.533160         1.078038
 C         3.528236        -0.310258         0.865780
 O         4.744407        -0.607428         1.580030
 C         2.503896        -1.258767         0.245583
 H        -0.228291         0.617184        -1.251035
 H         0.227633        -0.989936        -1.807220
 H        -0.571413        -0.813914        -0.132622
 H         2.977878         0.181742        -1.829107
 H         2.023566         1.743160        -1.568633
 H         4.365293         1.620234         0.163512
 H         2.772913         1.345425         2.312124
 H         4.448078        -0.947879         2.495166
 H         2.835375        -1.965385        -0.499131
 H         2.058159        -1.857839         0.957078
