19
Iteration:  2803
 C         0.135122        -0.392718        -0.915789
 C         1.487053        -0.046854        -0.229443
 C         2.503838         0.849151        -1.062254
 C         3.545974         0.921770         0.069482
 C         2.673271         0.921752         1.363290
 O         1.300472         0.613079         1.005438
 C         3.578164        -0.350527         0.945156
 O         4.824694        -0.743558         1.622459
 C         2.567635        -1.225187         0.200398
 H        -0.542981         0.590733        -0.808378
 H         0.379682        -0.690501        -1.962697
 H        -0.192465        -1.276594        -0.448369
 H         2.904589         0.272387        -1.991408
 H         2.246303         1.781897        -1.392341
 H         4.387509         1.659421        -0.045968
 H         2.791949         1.651858         2.137004
 H         4.571840        -0.889019         2.605555
 H         2.921723        -1.897990        -0.608287
 H         2.175134        -2.002788         0.949646
