19
Iteration:  2222charge 0 multiplicity 1
 C         0.297392        -0.546572        -0.849622
 C         1.584578        -0.125994        -0.169666
 C         2.449532         0.889802        -0.961807
 C         3.536751         1.022768         0.065408
 C         2.700360         0.913184         1.330502
 O         1.296244         0.808428         1.022303
 C         3.546533        -0.299976         0.856686
 O         4.669575        -0.896924         1.571440
 C         2.537778        -1.204487         0.233935
 H         0.400382        -0.457367        -1.909597
 H         0.227082        -1.685299        -0.753072
 H        -0.748559        -0.184203        -0.536534
 H         2.771430         0.569933        -1.993936
 H         1.963292         1.724116        -1.151303
 H         4.344748         1.782257         0.053886
 H         2.945838         1.437309         2.265563
 H         5.390110        -0.625925         0.962308
 H         2.788351        -1.864897        -0.564668
 H         2.161171        -1.821417         1.000389
