19
Iteration:  2571charge 0 multiplicity 1
 C         0.241410        -0.376721        -0.854759
 C         1.573924        -0.134721        -0.332014
 C         2.490136         0.826202        -1.026103
 C         3.486978         1.001072         0.134866
 C         2.725084         0.908396         1.378309
 O         1.375006         0.583261         1.020106
 C         3.441817        -0.323791         0.927512
 O         4.715997        -0.730342         1.580659
 C         2.562675        -1.278288         0.187113
 H        -0.189176         0.550524        -0.692898
 H         0.170495        -0.527212        -1.982832
 H        -0.394958        -1.154560        -0.414379
 H         2.880596         0.415710        -2.015889
 H         1.877489         1.700605        -1.198544
 H         4.352859         1.600314        -0.007193
 H         2.898870         1.591102         2.205030
 H         5.079334        -0.060098         2.238460
 H         3.154081        -1.829976        -0.576886
 H         1.986984        -2.165266         0.785259
