19
Iteration:  2490charge 0 multiplicity 1
 C         0.270191        -0.658692        -0.844131
 C         1.505641        -0.037742        -0.237169
 C         2.577271         0.962781        -0.945350
 C         3.570274         1.013641         0.095194
 C         2.630390         0.911915         1.389130
 O         1.267315         0.697959         0.976443
 C         3.581213        -0.287933         0.883783
 O         4.722186        -0.839362         1.513422
 C         2.578604        -1.154462         0.197997
 H        -0.294662         0.008401        -1.655207
 H         0.423794        -1.643023        -1.230485
 H        -0.459267        -0.638790         0.004277
 H         2.894641         0.658559        -1.861914
 H         2.037552         1.959785        -1.074585
 H         4.324650         1.724513         0.160353
 H         2.813784         1.533739         2.257363
 H         4.436436        -1.719603         1.829703
 H         2.926228        -1.620545        -0.734944
 H         2.041928        -1.749650         0.922012
