19
Iteration:   156
 C         0.140970        -0.628198        -0.690077
 C         1.512116        -0.157857        -0.140949
 C         2.530930         0.661976        -1.093488
 C         3.609612         1.000951         0.016143
 C         2.788890         1.067697         1.288820
 O         1.423885         0.903694         0.975624
 C         3.550831        -0.191884         0.905205
 O         4.588018        -0.894732         1.429805
 C         2.534066        -1.167058         0.345624
 H        -0.556944        -0.435214         0.081129
 H        -0.143941        -0.000631        -1.554432
 H         0.119661        -1.597128        -1.081240
 H         2.813957         0.255048        -1.992792
 H         1.986899         1.639858        -1.397144
 H         4.602722         1.592335        -0.267478
 H         2.986817         1.555564         2.196890
 H         4.159800        -1.449804         2.154339
 H         3.049725        -1.677305        -0.443731
 H         2.320953        -1.803309         1.167119
