19
Iteration:   345
 C         0.220306        -0.423315        -0.674370
 C         1.559108        -0.106594        -0.115435
 C         2.441338         0.669818        -1.126049
 C         3.520114         1.020310        -0.100098
 C         2.796652         0.938046         1.301536
 O         1.421215         0.806878         0.898950
 C         3.576884        -0.228520         0.906839
 O         4.656311        -0.855480         1.505346
 C         2.486313        -1.207951         0.418663
 H        -0.670851        -0.331295         0.014924
 H         0.048002         0.302773        -1.405901
 H         0.256724        -1.510496        -1.127149
 H         2.788739         0.006160        -1.994299
 H         1.877035         1.474984        -1.636157
 H         4.488026         1.501587        -0.280376
 H         2.971575         1.423585         2.217098
 H         4.274996        -1.150786         2.327635
 H         2.914378        -1.926385        -0.322616
 H         2.144152        -1.704590         1.328101
