19
Iteration:  3724charge 0 multiplicity 1
 C         0.259456        -0.510461        -0.806557
 C         1.557718        -0.064540        -0.202199
 C         2.518148         0.892509        -0.942624
 C         3.524824         1.086785         0.146157
 C         2.685002         0.848289         1.381630
 O         1.384509         0.636075         0.998520
 C         3.555369        -0.241988         0.874132
 O         4.630390        -0.870896         1.476441
 C         2.567602        -1.157125         0.126498
 H        -0.532386         0.293613        -0.922274
 H         0.447433        -0.897821        -1.926996
 H        -0.135941        -1.448732        -0.336396
 H         2.872087         0.425160        -1.921292
 H         1.912819         1.764118        -1.281215
 H         4.479711         1.779932         0.201615
 H         2.745456         1.350220         2.294372
 H         4.516877        -0.983453         2.461466
 H         2.955776        -1.583216        -0.829240
 H         2.021883        -1.942376         0.665265
