19
Iteration:  3746
 C         0.196183        -0.451217        -0.767665
 C         1.569354        -0.096024        -0.307735
 C         2.525857         0.974879        -0.990954
 C         3.504118         0.994417         0.145919
 C         2.698328         0.829852         1.377645
 O         1.309805         0.655633         0.961534
 C         3.565447        -0.292496         0.843833
 O         4.709319        -0.767571         1.603359
 C         2.631338        -1.287891         0.096614
 H        -0.435594         0.403491        -0.338678
 H        -0.229417        -0.515158        -1.845571
 H        -0.213441        -1.383768        -0.363326
 H         2.949054         0.708107        -2.004853
 H         1.974309         1.920764        -1.172575
 H         4.413045         1.743761         0.106152
 H         2.871393         1.173512         2.349904
 H         4.284033        -1.212153         2.356603
 H         3.143143        -1.808529        -0.747179
 H         2.191925        -2.055039         0.774793
