19
Iteration:  3111
 C         0.242635        -0.317333        -0.939400
 C         1.545700        -0.101815        -0.183326
 C         2.532549         0.787795        -1.044231
 C         3.495169         0.949169         0.113159
 C         2.709603         0.767807         1.386701
 O         1.324079         0.623895         1.051561
 C         3.544829        -0.296671         0.911147
 O         4.747430        -0.636195         1.540488
 C         2.523722        -1.267457         0.178943
 H        -0.439531         0.506121        -0.599109
 H         0.390138        -0.334378        -2.021317
 H        -0.426533        -1.252714        -0.647928
 H         2.942361         0.133797        -1.940090
 H         1.983062         1.652779        -1.484099
 H         4.311467         1.657783         0.141952
 H         3.022581         1.354030         2.285593
 H         4.589322        -0.793588         2.488541
 H         2.881867        -1.815356        -0.648592
 H         2.011133        -1.927359         0.807362
