19
Iteration:  4671
 C         0.281071        -0.477633        -0.919952
 C         1.565863        -0.102196        -0.216346
 C         2.565348         0.869968        -0.997009
 C         3.563768         1.089674         0.172301
 C         2.617309         0.967682         1.386380
 O         1.241169         0.706681         1.041943
 C         3.528349        -0.322065         0.900487
 O         4.815823        -0.888756         1.333890
 C         2.463586        -1.241169         0.308948
 H         0.198588        -1.569814        -0.899358
 H        -0.596978        -0.081625        -0.343278
 H         0.131123        -0.047459        -1.948455
 H         3.122202         0.417435        -1.735935
 H         1.879643         1.793395        -1.257054
 H         4.497652         1.562501         0.139510
 H         2.786764         1.315893         2.429104
 H         4.831548        -0.998186         2.285072
 H         2.893779        -1.905777        -0.502324
 H         1.858185        -1.741483         1.123100
