19
Iteration:  2697charge 0 multiplicity 1
 C         0.230919        -0.298945        -0.863241
 C         1.598889        -0.186331        -0.255999
 C         2.565798         0.782333        -1.026178
 C         3.511262         0.979915         0.080050
 C         2.678382         0.789682         1.405548
 O         1.360514         0.552590         1.038733
 C         3.531867        -0.275581         0.826664
 O         4.681002        -0.577720         1.550211
 C         2.526282        -1.281447         0.224125
 H        -0.070219         0.702746        -1.254155
 H         0.238812        -1.040645        -1.636865
 H        -0.436351        -0.470195         0.035064
 H         2.899575         0.310077        -1.973506
 H         2.063276         1.805117        -1.298306
 H         4.350339         1.720044        -0.024511
 H         2.890767         1.374150         2.276967
 H         4.357223        -1.172253         2.306157
 H         3.006830        -1.932979        -0.546574
 H         1.855518        -1.769846         0.928922
