19
Iteration:  2842charge 0 multiplicity 1
 C         0.254539        -0.300974        -0.794617
 C         1.604703        -0.152523        -0.267101
 C         2.519524         0.786986        -1.070806
 C         3.457886         1.001259         0.120103
 C         2.729015         0.831420         1.415478
 O         1.387117         0.639569         0.921723
 C         3.528243        -0.299213         0.871934
 O         4.653573        -0.610908         1.569287
 C         2.521271        -1.361837         0.254923
 H        -0.361405         0.419288        -0.350730
 H         0.194106        -0.111419        -1.955369
 H        -0.075466        -1.390979        -0.703417
 H         3.046353         0.252757        -1.852943
 H         1.930439         1.740900        -1.540693
 H         4.559930         1.498187        -0.035806
 H         2.811463         1.241088         2.405448
 H         4.435810        -1.243254         2.210850
 H         3.058316        -1.942688        -0.514635
 H         1.905566        -1.737802         1.049357
