19
Iteration:  2772charge 0 multiplicity 1
 C         0.333373        -0.594931        -0.855426
 C         1.583081        -0.099638        -0.250521
 C         2.527261         0.914053        -0.973347
 C         3.540317         1.070133         0.113822
 C         2.743447         0.946395         1.409300
 O         1.355584         0.722820         0.986398
 C         3.474773        -0.298860         0.848489
 O         4.565096        -0.838270         1.431654
 C         2.538131        -1.260009         0.281073
 H        -0.119065         0.309310        -1.331161
 H         0.615758        -1.298303        -1.540650
 H        -0.232328        -1.061286        -0.074210
 H         3.011670         0.571898        -1.903346
 H         1.955030         1.780594        -1.168470
 H         4.413313         1.692500         0.050167
 H         2.879490         1.487339         2.336393
 H         4.417261        -0.895193         2.350035
 H         2.853333        -1.884716        -0.617059
 H         2.123716        -1.738420         1.250393
