19
Iteration:  4649charge 0 multiplicity 1
 C         0.301368        -0.586071        -0.968907
 C         1.518665         0.014939        -0.245849
 C         2.466032         0.869339        -1.012904
 C         3.541287         0.981045         0.131899
 C         2.769472         0.810853         1.491097
 O         1.418591         0.714438         1.044292
 C         3.531429        -0.321299         0.921992
 O         4.675100        -0.761947         1.375668
 C         2.430299        -1.143054         0.333330
 H         0.510190        -1.651073        -1.061638
 H        -0.720302        -0.457576        -0.494637
 H         0.119918        -0.104093        -1.967457
 H         2.786645         0.418983        -1.885466
 H         2.058117         1.994042        -1.077061
 H         4.390355         1.556491         0.198719
 H         2.949493         1.665262         2.137932
 H         4.547163        -1.502500         2.039433
 H         2.901030        -1.680529        -0.550580
 H         1.796009        -1.741323         1.061841
