19
Iteration:  2373charge 0 multiplicity 1
 C         0.234347        -0.519879        -0.852721
 C         1.588805        -0.042085        -0.225041
 C         2.557331         0.823011        -1.027655
 C         3.550066         0.986778         0.121186
 C         2.678901         0.967524         1.363961
 O         1.321854         0.665744         1.003568
 C         3.555572        -0.243945         0.941827
 O         4.752395        -0.793833         1.460334
 C         2.448591        -1.223122         0.241249
 H        -0.648418        -0.091292        -0.513211
 H         0.175257        -0.461042        -1.924780
 H         0.086714        -1.593918        -0.589313
 H         3.017296         0.253511        -1.853409
 H         1.913227         1.665999        -1.332057
 H         4.343916         1.627914         0.110725
 H         2.692518         1.667641         2.197787
 H         4.513278        -1.246900         2.250499
 H         2.982899        -1.654975        -0.569567
 H         1.914410        -1.850289         0.973749
