19
Iteration:  4142
 C         0.190530        -0.473390        -0.850027
 C         1.560912        -0.079879        -0.280352
 C         2.588461         1.045465        -0.930631
 C         3.540767         1.062685         0.221445
 C         2.649328         0.800822         1.432093
 O         1.278378         0.493418         1.021890
 C         3.477143        -0.279054         0.909259
 O         4.755574        -0.755692         1.390100
 C         2.636827        -1.190775         0.112872
 H        -0.168106         0.373229        -1.345927
 H         0.190555        -1.317689        -1.469356
 H        -0.465524        -0.711549         0.011242
 H         2.788942         0.748036        -1.998792
 H         2.011304         1.972303        -1.031415
 H         4.116679         1.858706         0.473301
 H         2.909444         1.173429         2.416621
 H         4.703386        -1.650611         1.869590
 H         3.028684        -1.749965        -0.688089
 H         2.153698        -1.888824         0.719375
