19
Iteration:  3622
 C         0.176625        -0.366911        -0.785176
 C         1.491660        -0.122777        -0.303045
 C         2.590743         0.895521        -1.053001
 C         3.521454         1.098629         0.141869
 C         2.643437         0.825314         1.418579
 O         1.368921         0.578414         1.057041
 C         3.524876        -0.264757         0.784733
 O         4.729375        -0.727447         1.608340
 C         2.619198        -1.273838         0.093708
 H        -0.302648         0.395856        -1.413067
 H         0.045369        -1.328412        -1.359847
 H        -0.665152        -0.545716         0.021733
 H         2.922530         0.255260        -1.944037
 H         2.137568         1.760884        -1.431992
 H         4.426932         1.558953         0.136214
 H         2.781393         1.248743         2.426527
 H         4.516547        -1.430200         2.224045
 H         3.092597        -1.781028        -0.721313
 H         2.197902        -1.996406         0.773440
