19
Iteration:  2255charge 0 multiplicity 1
 C         0.215631        -0.437666        -0.905143
 C         1.561909        -0.107455        -0.289010
 C         2.525664         0.814094        -1.047208
 C         3.534502         1.026414         0.080037
 C         2.696908         0.862866         1.447257
 O         1.370935         0.599722         1.068260
 C         3.485014        -0.264114         0.932402
 O         4.728880        -0.688662         1.436827
 C         2.510967        -1.188124         0.319521
 H         0.159635        -0.031035        -1.902464
 H         0.319728        -1.598602        -1.015876
 H        -0.713733        -0.098364        -0.245480
 H         3.002882         0.156790        -1.864547
 H         2.077873         1.662880        -1.372024
 H         4.363295         1.677698         0.043654
 H         2.924866         1.447022         2.375881
 H         4.573362        -1.605855         1.675607
 H         3.023175        -1.857347        -0.344488
 H         1.843453        -1.554306         1.043733
