19
Iteration:  4391charge 0 multiplicity 1
 C         0.293558        -0.515394        -0.869262
 C         1.563056        -0.065497        -0.212769
 C         2.502604         0.896675        -1.036842
 C         3.506273         1.006982         0.169790
 C         2.654966         0.944734         1.384379
 O         1.384695         0.689718         0.981640
 C         3.524256        -0.247565         0.986046
 O         4.677745        -0.908523         1.381583
 C         2.458019        -1.218364         0.278502
 H         0.713125        -0.985054        -1.773189
 H        -0.201889        -1.296416        -0.228328
 H        -0.525833         0.260647        -1.132704
 H         3.028645         0.218841        -1.833225
 H         2.102549         1.798530        -1.391412
 H         4.550829         1.498360         0.071717
 H         2.699516         1.540678         2.313232
 H         5.228671        -0.393751         2.061683
 H         2.884540        -1.810018        -0.561076
 H         2.019680        -1.710180         1.188891
