19
Iteration:  3014
 C         0.320800        -0.530775        -0.914174
 C         1.545749        -0.050659        -0.240105
 C         2.422477         0.903330        -0.978826
 C         3.554506         0.976765         0.098992
 C         2.715672         0.947542         1.387476
 O         1.280052         0.734872         1.018235
 C         3.510358        -0.298545         0.959349
 O         4.716244        -0.882001         1.454666
 C         2.576695        -1.208965         0.245140
 H        -0.077900         0.195680        -1.562538
 H         0.551103        -1.490749        -1.387416
 H        -0.555210        -0.886117        -0.222236
 H         2.713759         0.586143        -2.000967
 H         2.100936         1.972863        -1.114720
 H         4.583577         1.599546         0.058912
 H         2.693255         1.579108         2.269173
 H         4.658571        -1.124411         2.421405
 H         3.061722        -1.690181        -0.652532
 H         2.109700        -2.008735         0.857519
