19
Iteration:   265charge 0 multiplicity 1
 C         0.038954        -0.294287        -0.740114
 C         1.522887        -0.197482        -0.157913
 C         2.595174         0.552589        -1.130248
 C         3.602407         0.939466        -0.024926
 C         2.791271         1.021351         1.211642
 O         1.427101         0.718093         1.019749
 C         3.573768        -0.241963         0.848710
 O         4.670927        -0.682266         1.537650
 C         2.464336        -1.290711         0.397583
 H        -0.470465        -1.208304        -0.463728
 H        -0.560050         0.579822        -0.376027
 H         0.117279        -0.179737        -1.804341
 H         2.987769        -0.161042        -1.816334
 H         1.988241         1.414310        -1.654692
 H         4.577474         1.486750        -0.289290
 H         2.982422         1.486323         2.207923
 H         4.452859        -0.782053         2.459350
 H         2.768251        -2.017933        -0.334467
 H         2.065619        -1.813302         1.221520
