19
Iteration:  1906charge 0 multiplicity 1
 C         0.215325        -0.365946        -0.728620
 C         1.556672        -0.167761        -0.150233
 C         2.379325         0.778357        -1.009514
 C         3.593796         1.033846         0.048583
 C         2.729457         0.885456         1.341401
 O         1.349172         0.661917         1.035842
 C         3.588623        -0.324103         0.777170
 O         4.638506        -0.792938         1.623651
 C         2.595311        -1.235532         0.131006
 H        -0.562278        -0.142264        -0.050194
 H         0.080748         0.314023        -1.573087
 H         0.043049        -1.448793        -1.172669
 H         2.553036         0.351122        -1.964376
 H         1.890302         1.788949        -1.072146
 H         4.287056         1.799959        -0.173126
 H         2.937517         1.263833         2.335105
 H         5.364381        -0.247673         1.427641
 H         2.975263        -1.438719        -0.897488
 H         2.261209        -2.161738         0.609396
