19
Iteration:   442charge 0 multiplicity 1
 C         0.126634        -0.566140        -0.693968
 C         1.564278        -0.109135        -0.277460
 C         2.491472         0.695089        -1.147589
 C         3.584490         0.883909        -0.084474
 C         2.796132         1.144690         1.262172
 O         1.439716         0.822167         1.021119
 C         3.533802        -0.189472         1.005660
 O         4.638521        -0.971784         1.491486
 C         2.510373        -1.092660         0.396597
 H        -0.297838        -1.205224         0.138940
 H        -0.520693         0.192249        -0.874545
 H         0.342994        -1.332966        -1.550439
 H         2.751780         0.187542        -2.097883
 H         1.982704         1.681751        -1.410412
 H         4.559584         1.541373        -0.238716
 H         3.014188         1.963767         1.935333
 H         4.313485        -1.270791         2.365424
 H         2.939359        -1.868365        -0.264210
 H         1.918906        -1.445448         1.187724
