19
Iteration:  2109charge 0 multiplicity 1
 C         0.264570        -0.537191        -0.888703
 C         1.544747        -0.043192        -0.200598
 C         2.499566         0.882803        -1.013313
 C         3.500900         1.041341         0.085767
 C         2.728232         0.845700         1.423248
 O         1.305148         0.714621         1.066559
 C         3.576626        -0.282815         0.850797
 O         4.720367        -0.862185         1.377264
 C         2.513769        -1.167193         0.338235
 H         0.374011        -1.733307        -0.998384
 H        -0.637669        -0.304418        -0.288282
 H         0.196980        -0.020039        -1.881553
 H         2.754819         0.319014        -1.915721
 H         1.984973         1.740382        -1.413966
 H         4.385827         1.556715        -0.071632
 H         2.905423         1.185371         2.473427
 H         5.020651        -0.279079         2.144401
 H         2.713270        -1.942785        -0.410931
 H         1.890075        -1.790849         1.042999
