19
Iteration:  2778
 C         0.304777        -0.542940        -0.880772
 C         1.594602        -0.154658        -0.235640
 C         2.481252         0.891103        -1.001369
 C         3.530563         1.050118         0.125441
 C         2.737393         0.913708         1.381784
 O         1.355320         0.729978         0.969155
 C         3.516176        -0.301036         0.901765
 O         4.617788        -0.836166         1.464835
 C         2.500288        -1.194488         0.275615
 H        -0.187448         0.423055        -1.202962
 H         0.528589        -1.371679        -1.716043
 H        -0.188364        -1.168335        -0.092390
 H         2.962956         0.625190        -1.991478
 H         1.893507         1.876128        -1.155841
 H         4.464065         1.750532         0.030399
 H         2.970851         1.430395         2.317998
 H         4.513714        -0.874384         2.435662
 H         2.966356        -1.830468        -0.442602
 H         2.059390        -1.860968         0.994606
