19
Iteration:  4641
 C         0.276215        -0.550255        -0.973966
 C         1.520079        -0.004534        -0.141679
 C         2.467501         0.912260        -1.015553
 C         3.629239         0.993336         0.101996
 C         2.761759         0.866825         1.411260
 O         1.375545         0.717103         1.083867
 C         3.462190        -0.311109         0.869037
 O         4.706401        -0.764344         1.469718
 C         2.427189        -1.195206         0.262057
 H         0.629472        -1.599323        -1.109137
 H        -0.597986        -0.668963        -0.368284
 H         0.129681        -0.229147        -2.037603
 H         2.893289         0.501921        -1.932404
 H         1.747121         1.764007        -1.209273
 H         4.597948         1.475813         0.053492
 H         3.035631         1.524395         2.278781
 H         4.503802        -1.633568         1.838432
 H         2.896702        -1.765870        -0.554239
 H         1.860750        -1.895442         0.958759
