19
Iteration:  4992
 C         0.124505        -0.316132        -0.719188
 C         1.563486        -0.141694        -0.222117
 C         2.540176         0.708626        -1.080596
 C         3.505993         0.950668         0.093254
 C         2.703083         0.842112         1.278365
 O         1.373374         0.670584         0.925041
 C         3.589525        -0.358949         0.864904
 O         4.733838        -0.707196         1.577762
 C         2.538631        -1.172996         0.245585
 H        -0.558211        -1.054594        -0.303204
 H        -0.329975         0.652728        -0.410909
 H         0.092984        -0.502033        -1.803527
 H         2.970177         0.274859        -1.927344
 H         2.002961         1.643208        -1.477781
 H         4.499700         1.527983         0.299327
 H         2.908466         1.333792         2.183255
 H         4.483623        -0.667812         2.525154
 H         3.046381        -1.687752        -0.592732
 H         1.926311        -1.835862         0.863269
