19
Iteration:   727
 C         0.231968        -0.570730        -0.626303
 C         1.526843        -0.040890        -0.096101
 C         2.513493         0.741367        -1.083272
 C         3.525417         0.929479         0.008671
 C         2.725457         1.078580         1.163713
 O         1.372429         0.904432         0.896266
 C         3.609112        -0.286849         0.858981
 O         4.648601        -0.925827         1.529483
 C         2.544830        -1.176413         0.387869
 H        -0.096273        -1.469540        -0.186263
 H        -0.708315         0.091160        -0.521801
 H         0.212066        -0.830164        -1.702446
 H         2.790257         0.157837        -1.967552
 H         2.183322         1.743489        -1.486726
 H         4.461807         1.635690        -0.232327
 H         3.075665         1.486992         2.107169
 H         4.313627        -1.660306         2.051715
 H         2.783214        -1.780031        -0.463858
 H         2.063751        -1.873395         1.153385
