19
Iteration:  1721charge 0 multiplicity 1
 C         0.206319        -0.467256        -0.755232
 C         1.589118        -0.107098        -0.194235
 C         2.479484         0.770981        -1.002268
 C         3.523328         1.065018        -0.023671
 C         2.786564         0.908262         1.317091
 O         1.411916         0.710494         1.014350
 C         3.534373        -0.309713         0.825699
 O         4.679462        -0.771244         1.481903
 C         2.454156        -1.204147         0.337684
 H        -0.446521        -0.801198         0.029011
 H        -0.279990         0.350577        -1.238348
 H         0.517108        -1.274703        -1.533343
 H         2.866516         0.369795        -1.886736
 H         1.784787         1.692427        -1.279691
 H         4.479413         1.665966        -0.238847
 H         3.087375         1.422360         2.233815
 H         4.452859        -1.515483         2.056934
 H         2.889084        -1.927202        -0.386540
 H         1.848472        -1.635705         1.168663
