19
Iteration:  2594charge 0 multiplicity 1
 C         0.252123        -0.537141        -0.789384
 C         1.536671        -0.071887        -0.218469
 C         2.523962         0.889321        -1.016740
 C         3.595768         1.039225         0.078855
 C         2.677245         0.855785         1.382187
 O         1.321243         0.693371         0.975909
 C         3.515018        -0.262728         0.855953
 O         4.607745        -0.856905         1.567884
 C         2.610342        -1.187728         0.210144
 H        -0.548305         0.088755        -0.515629
 H         0.351365        -0.432217        -1.894940
 H         0.006662        -1.545589        -0.624689
 H         2.964637         0.302993        -1.901747
 H         2.006459         1.737477        -1.369267
 H         4.307863         1.683485        -0.206168
 H         2.865655         1.416057         2.289098
 H         4.941743        -0.354033         2.274926
 H         3.013714        -1.634772        -0.716677
 H         2.225104        -2.103608         0.865447
