19
Iteration:  4575charge 0 multiplicity 1
 C         0.167126        -0.367148        -0.704530
 C         1.582456        -0.118269        -0.350436
 C         2.630635         0.764039        -1.043050
 C         3.554557         0.965890         0.107926
 C         2.677295         0.856062         1.352367
 O         1.316144         0.648083         1.009587
 C         3.562570        -0.287505         0.885060
 O         4.675804        -0.700631         1.546644
 C         2.532474        -1.216864         0.137499
 H         0.017653        -0.324258        -1.812391
 H        -0.030289        -1.379832        -0.328820
 H        -0.561357         0.403764        -0.285220
 H         3.126683         0.140600        -1.809054
 H         2.073482         1.746213        -1.281955
 H         4.336840         1.598891         0.261737
 H         2.886072         1.621567         2.072192
 H         4.328607        -1.242202         2.299215
 H         2.896412        -1.819190        -0.708250
 H         2.109266        -1.815815         0.998080
