19
Iteration:  4709charge 0 multiplicity 1
 C         0.166890        -0.314850        -0.860770
 C         1.583385        -0.123494        -0.350842
 C         2.492222         0.792278        -1.082154
 C         3.530734         1.066665         0.067143
 C         2.733740         0.800427         1.431390
 O         1.321399         0.598798         1.127373
 C         3.537834        -0.299814         0.945821
 O         4.690950        -0.777902         1.520550
 C         2.579031        -1.195585         0.179849
 H        -0.326994        -1.239063        -0.508639
 H        -0.354707         0.538106        -0.423957
 H         0.153937        -0.363883        -1.935033
 H         2.870164         0.293881        -2.072079
 H         2.001347         1.656928        -1.420057
 H         4.557537         1.549081         0.003954
 H         2.929911         1.148855         2.409230
 H         4.857983        -0.500667         2.478276
 H         3.117273        -1.693422        -0.621878
 H         2.045407        -1.993427         0.688495
