19
Iteration:  2042
 C         0.114033        -0.427860        -0.761264
 C         1.579256        -0.094558        -0.195374
 C         2.438366         0.827782        -1.034021
 C         3.519954         1.017425         0.058811
 C         2.771517         0.872257         1.356233
 O         1.428998         0.638867         1.019444
 C         3.561108        -0.338856         0.805963
 O         4.655258        -0.696842         1.710155
 C         2.524226        -1.242922         0.077547
 H        -0.042519        -1.634213        -0.712609
 H        -0.755148         0.004662        -0.117777
 H         0.025856        -0.066759        -1.789008
 H         2.996419         0.422925        -1.902846
 H         2.018085         1.860421        -1.207300
 H         4.357777         1.711541        -0.098943
 H         3.057449         1.291224         2.307559
 H         5.439570        -0.920703         1.168052
 H         2.861190        -1.797820        -0.853487
 H         2.126601        -2.058709         0.776821
