19
Iteration:  3632
 C         0.099208        -0.353250        -0.828813
 C         1.562145        -0.024956        -0.252011
 C         2.579858         0.820210        -1.031847
 C         3.524389         1.081976         0.141092
 C         2.696748         0.806977         1.410567
 O         1.324811         0.475620         1.021947
 C         3.505730        -0.286278         0.896879
 O         4.767908        -0.672119         1.571842
 C         2.542783        -1.215999         0.092524
 H        -0.136471         0.421263        -1.577968
 H         0.263859        -1.322301        -1.286700
 H        -0.585242        -0.403029         0.124991
 H         3.164036         0.300551        -1.799651
 H         2.142762         1.672478        -1.526679
 H         4.478063         1.516871         0.063457
 H         2.873023         1.400091         2.293988
 H         4.479278        -1.462079         1.970293
 H         3.085883        -1.678472        -0.709309
 H         2.157164        -2.000845         0.737934
