19
Iteration:  2816
 C         0.160475        -0.309792        -0.883385
 C         1.522572        -0.132577        -0.225126
 C         2.602954         0.756988        -1.043014
 C         3.553498         0.954657         0.084985
 C         2.707286         0.846545         1.308129
 O         1.307519         0.592115         1.049886
 C         3.579259        -0.305113         0.874560
 O         4.718505        -0.607160         1.604742
 C         2.535280        -1.279160         0.203374
 H        -0.591054         0.501259        -0.591863
 H         0.190571        -0.283797        -1.907592
 H        -0.362300        -1.234094        -0.616481
 H         2.990829         0.153281        -1.850991
 H         2.187605         1.662511        -1.387656
 H         4.371638         1.535262         0.127379
 H         2.935607         1.393850         2.244631
 H         4.433385        -0.953047         2.423756
 H         3.049278        -1.676183        -0.734944
 H         1.982527        -1.994146         0.915680
