19
Iteration:   855charge 0 multiplicity 1
 C         0.131387        -0.584042        -0.684173
 C         1.489647        -0.025985        -0.161368
 C         2.541781         0.695454        -1.050797
 C         3.530909         1.028597        -0.011524
 C         2.816241         0.923181         1.282264
 O         1.470141         0.932916         0.958835
 C         3.488498        -0.299216         0.855973
 O         4.721410        -0.798912         1.518652
 C         2.437511        -1.257524         0.293854
 H        -0.354512        -1.103647         0.160858
 H        -0.579836         0.138882        -1.016783
 H         0.355307        -1.365140        -1.552771
 H         2.830682         0.066681        -1.818430
 H         2.019897         1.672935        -1.482216
 H         4.631301         1.425830        -0.129040
 H         2.850818         1.614115         2.102302
 H         4.557071        -1.494124         2.192925
 H         2.917104        -1.807340        -0.583962
 H         2.018084        -1.800483         1.121580
