19
Iteration:  4213charge 0 multiplicity 1
 C         0.289905        -0.474880        -0.969741
 C         1.540773        -0.097970        -0.253553
 C         2.400700         1.046209        -0.995072
 C         3.558205         1.046200         0.115441
 C         2.743719         0.856894         1.464161
 O         1.346559         0.485424         1.106086
 C         3.538491        -0.299553         0.917116
 O         4.743588        -0.811803         1.448041
 C         2.515820        -1.165460         0.180573
 H        -0.611797        -0.021129        -0.391579
 H         0.235659        -0.086801        -2.076379
 H         0.078834        -1.555967        -1.116570
 H         2.688192         0.866687        -2.017342
 H         1.822372         2.014622        -1.057827
 H         4.361484         1.794360         0.112486
 H         2.695586         1.045209         2.555521
 H         4.915655        -0.746821         2.442088
 H         2.919503        -1.811976        -0.664050
 H         1.943104        -1.978217         0.769756
