19
Iteration:  3328
 C         0.253862        -0.520085        -0.824619
 C         1.585228        -0.063977        -0.275115
 C         2.525077         0.882685        -1.046403
 C         3.574902         1.024931         0.139612
 C         2.688080         0.849427         1.344499
 O         1.316363         0.647903         1.085624
 C         3.510578        -0.272129         0.863299
 O         4.648688        -0.756543         1.639727
 C         2.575344        -1.151526         0.083783
 H        -0.571177         0.090218        -0.389631
 H        -0.018659        -0.348382        -1.860301
 H         0.003415        -1.566629        -0.480920
 H         3.008262         0.336246        -1.947485
 H         2.181752         1.848095        -1.349429
 H         4.465723         1.629002         0.037481
 H         2.919575         1.381332         2.283876
 H         4.567096        -1.758146         1.560938
 H         2.939535        -1.732626        -0.802697
 H         2.043792        -1.883589         0.858212
