19
Iteration:  2232charge 0 multiplicity 1
 C         0.287952        -0.591792        -0.896701
 C         1.517156        -0.084865        -0.193364
 C         2.510318         0.895227        -1.007485
 C         3.543721         1.092609         0.106443
 C         2.698933         0.942773         1.375652
 O         1.322414         0.713657         1.045732
 C         3.588328        -0.318680         0.786213
 O         4.692109        -0.828616         1.548418
 C         2.451614        -1.229809         0.327299
 H         0.356864        -0.210506        -1.937310
 H         0.201811        -1.723536        -0.896051
 H        -0.637678        -0.043957        -0.413651
 H         2.909972         0.409661        -1.955887
 H         1.974741         1.775146        -1.176142
 H         4.472674         1.747819         0.012830
 H         2.822339         1.567737         2.264115
 H         5.327237        -1.312329         0.928744
 H         2.770390        -1.848171        -0.484307
 H         1.926620        -1.743394         1.112156
