19
Iteration:   604charge 0 multiplicity 1
 C         0.234218        -0.598006        -0.588030
 C         1.534530        -0.062207        -0.219278
 C         2.461262         0.775061        -1.136847
 C         3.567860         1.009977        -0.007522
 C         2.797101         0.999326         1.306408
 O         1.413698         0.895610         0.861112
 C         3.519177        -0.296488         0.856038
 O         4.666830        -0.920501         1.551149
 C         2.504167        -1.195237         0.382475
 H        -0.457406        -0.615615         0.283336
 H        -0.227513        -0.056814        -1.341822
 H         0.285179        -1.649397        -1.009379
 H         2.812163         0.253166        -1.955162
 H         1.988790         1.772098        -1.494709
 H         4.482053         1.605130        -0.252997
 H         2.939356         1.759612         2.092166
 H         4.235111        -1.444756         2.207571
 H         2.756193        -1.838014        -0.505727
 H         2.021515        -1.726287         1.184147
