19
Iteration:  3615
 C         0.146195        -0.419289        -0.794851
 C         1.584470        -0.152971        -0.271029
 C         2.529520         0.927577        -1.055323
 C         3.519794         1.065432         0.129891
 C         2.668158         0.823244         1.384852
 O         1.344945         0.641889         1.046575
 C         3.600046        -0.315544         0.824301
 O         4.669416        -0.738885         1.581312
 C         2.635908        -1.266557         0.110603
 H        -0.256800         0.449259        -1.308526
 H         0.049356        -1.272714        -1.541372
 H        -0.439818        -0.534708         0.075289
 H         3.019275         0.312107        -1.898478
 H         2.085298         1.925168        -1.269130
 H         4.351698         1.821088         0.174671
 H         2.791990         1.141070         2.465755
 H         4.338275        -1.291852         2.254883
 H         2.987095        -1.729231        -0.852947
 H         2.175552        -1.967646         0.839977
