19
Iteration:  3153
 C         0.327745        -0.547443        -0.865858
 C         1.592907        -0.121759        -0.284037
 C         2.472843         0.910067        -0.985182
 C         3.553321         1.074253         0.129762
 C         2.704935         0.883089         1.448339
 O         1.345873         0.754199         0.961831
 C         3.500846        -0.328305         0.951664
 O         4.654219        -0.839761         1.425924
 C         2.534962        -1.214844         0.235854
 H        -0.258517         0.328157        -1.320476
 H         0.467807        -1.325350        -1.563055
 H        -0.475018        -1.022493        -0.204640
 H         2.849168         0.714529        -2.065691
 H         1.897030         1.754520        -1.106844
 H         4.337450         1.800339         0.355660
 H         2.936721         1.481301         2.365357
 H         4.409555        -1.242870         2.231114
 H         3.048815        -1.809837        -0.494151
 H         2.074076        -1.925802         0.954697
