19
Iteration:  3798charge 0 multiplicity 1
 C         0.263497        -0.361159        -0.957096
 C         1.511971        -0.098955        -0.181842
 C         2.460829         0.861400        -0.959040
 C         3.485313         1.080603         0.204336
 C         2.708278         0.789801         1.409324
 O         1.305716         0.623423         1.047309
 C         3.523796        -0.311752         0.876572
 O         4.755814        -0.753839         1.417554
 C         2.592176        -1.271377         0.223602
 H        -0.351242         0.506078        -1.135607
 H         0.536050        -0.377900        -2.011592
 H        -0.267599        -1.284637        -0.560791
 H         2.906237         0.322289        -1.879529
 H         1.889816         1.654930        -1.363542
 H         4.383012         1.788316        -0.019213
 H         2.815505         1.239631         2.330772
 H         4.710869        -1.140726         2.350544
 H         3.086784        -1.708364        -0.639363
 H         2.290948        -1.934381         1.031345
