19
Iteration:  2805charge 0 multiplicity 1
 C         0.139662        -0.364504        -0.921819
 C         1.487931        -0.067298        -0.211494
 C         2.516494         0.837326        -1.074011
 C         3.555084         0.920110         0.086098
 C         2.678336         0.915062         1.346547
 O         1.290037         0.604892         1.013528
 C         3.587426        -0.347997         0.928728
 O         4.812077        -0.719703         1.626864
 C         2.561708        -1.225132         0.193551
 H        -0.590220         0.502133        -0.785652
 H         0.314850        -0.598497        -1.901074
 H        -0.240397        -1.276171        -0.441010
 H         2.921164         0.286390        -1.918359
 H         2.306973         1.798663        -1.425298
 H         4.303554         1.579697        -0.036089
 H         2.851009         1.654631         2.150056
 H         4.568357        -0.888452         2.544443
 H         2.970848        -1.945394        -0.602702
 H         2.179038        -2.045284         0.929034
