19
Iteration:  3662charge 0 multiplicity 1
 C         0.244804        -0.389657        -0.946160
 C         1.586258        -0.108367        -0.225408
 C         2.492856         0.882454        -0.966415
 C         3.501124         1.028514         0.154655
 C         2.659036         0.804924         1.450557
 O         1.270047         0.665656         1.022295
 C         3.521530        -0.323990         0.901559
 O         4.822558        -0.699303         1.406834
 C         2.524110        -1.313600         0.236941
 H         0.075137         0.345052        -1.779844
 H         0.368439        -1.295367        -1.422384
 H        -0.617034        -0.320424        -0.263123
 H         2.956377         0.554131        -1.829686
 H         1.830279         1.830894        -1.011282
 H         4.568515         1.459710         0.153959
 H         2.837666         1.378331         2.319251
 H         4.491642        -1.324805         2.121983
 H         3.058480        -1.861363        -0.571004
 H         2.129955        -1.946644         1.073045
