19
Iteration:  2385
 C         0.272630        -0.461079        -0.835146
 C         1.535930        -0.127306        -0.240461
 C         2.594555         0.825239        -0.967435
 C         3.548315         1.048046         0.118473
 C         2.664969         0.941407         1.322255
 O         1.322641         0.592284         1.005553
 C         3.514506        -0.334461         0.850976
 O         4.704892        -0.735527         1.437007
 C         2.450607        -1.203281         0.317434
 H        -0.344104         0.202575        -0.348279
 H         0.340064        -0.255198        -1.918059
 H         0.080184        -1.568548        -0.665453
 H         3.036410         0.327467        -1.901063
 H         2.316649         1.806479        -1.325296
 H         4.470246         1.571027         0.104806
 H         2.880804         1.537434         2.191268
 H         4.673800        -0.535708         2.436809
 H         2.721129        -1.884133        -0.457083
 H         1.939993        -1.932595         0.932340
