19
Iteration:  4474charge 0 multiplicity 1
 C         0.114444        -0.445270        -0.723900
 C         1.518847        -0.074761        -0.247243
 C         2.680953         0.825437        -1.068997
 C         3.549909         0.955869         0.131571
 C         2.719889         0.856520         1.350985
 O         1.310486         0.685477         0.907477
 C         3.525646        -0.323052         0.931987
 O         4.699026        -0.687799         1.560294
 C         2.521859        -1.199458         0.161307
 H        -0.162722        -0.104427        -1.731841
 H         0.035811        -1.565649        -0.678216
 H        -0.557770         0.063997        -0.043518
 H         3.019138         0.230097        -1.887237
 H         2.161932         1.835602        -1.378776
 H         4.556785         1.503744         0.128402
 H         2.890455         1.398277         2.301527
 H         4.602748        -1.391277         2.192794
 H         3.142139        -1.744485        -0.613291
 H         2.116491        -2.082435         0.722062
