19
Iteration:  3135charge 0 multiplicity 1
 C         0.229825        -0.473920        -0.944202
 C         1.523617        -0.045856        -0.250290
 C         2.570717         0.942279        -1.002543
 C         3.541050         1.023612         0.136919
 C         2.670903         0.875402         1.354657
 O         1.351410         0.562716         1.034422
 C         3.558535        -0.270206         0.894564
 O         4.739677        -0.786094         1.484407
 C         2.470158        -1.223401         0.307610
 H        -0.416070         0.325650        -1.071247
 H         0.415975        -0.995808        -1.947875
 H        -0.377033        -1.150277        -0.260804
 H         3.082571         0.507316        -1.875554
 H         2.115253         1.975232        -1.340370
 H         4.423216         1.437634        -0.108549
 H         2.761770         1.414918         2.312796
 H         4.570133        -0.948678         2.390734
 H         2.819722        -1.922640        -0.462272
 H         1.909904        -1.763001         1.029214
