19
Iteration:  2182charge 0 multiplicity 1
 C         0.165133        -0.472895        -0.722801
 C         1.518029        -0.061438        -0.261038
 C         2.583081         0.856642        -1.047674
 C         3.550331         1.077221         0.076316
 C         2.710484         0.896046         1.288521
 O         1.354580         0.557982         1.068353
 C         3.561406        -0.269476         0.835465
 O         4.674129        -0.757204         1.561543
 C         2.554971        -1.233280         0.128700
 H         0.184305        -0.984787        -1.672753
 H        -0.260466        -1.113245         0.059018
 H        -0.382660         0.406428        -0.778632
 H         3.035003         0.365960        -1.919939
 H         2.003194         1.874430        -1.406900
 H         4.335329         1.752012         0.062641
 H         2.984517         1.356033         2.260617
 H         4.458720        -1.022194         2.493645
 H         2.909381        -1.860288        -0.749498
 H         2.091315        -1.859283         0.928879
