19
Iteration:  2149
 C         0.169499        -0.371575        -0.830312
 C         1.557193        -0.137174        -0.232565
 C         2.444954         0.802557        -1.025831
 C         3.511616         1.049947         0.086305
 C         2.725740         0.848391         1.387449
 O         1.381241         0.639125         1.024054
 C         3.512957        -0.349869         0.881020
 O         4.723764        -0.668197         1.598229
 C         2.584832        -1.269640         0.195320
 H         0.040535        -1.301459        -1.339485
 H        -0.632206        -0.296112        -0.077849
 H        -0.055614         0.401618        -1.496932
 H         2.818041         0.564378        -2.020128
 H         1.862700         1.843223        -1.304411
 H         4.420115         1.586619        -0.076038
 H         2.852931         1.297441         2.392354
 H         5.183953        -1.317685         1.083511
 H         3.070497        -1.897464        -0.630388
 H         2.214868        -2.042653         0.914283
