19
Iteration:  3254charge 0 multiplicity 1
 C         0.212678        -0.359565        -0.971819
 C         1.542741        -0.108208        -0.257662
 C         2.487719         0.845799        -1.009777
 C         3.508809         0.982304         0.140958
 C         2.726734         0.879008         1.440799
 O         1.317097         0.561606         1.084568
 C         3.537926        -0.351285         0.911517
 O         4.791521        -0.730479         1.501779
 C         2.512057        -1.157026         0.202791
 H        -0.438427         0.437368        -1.189510
 H         0.550190        -0.715828        -2.053263
 H        -0.420816        -1.166912        -0.490924
 H         2.771069         0.177682        -1.886149
 H         2.105273         1.773006        -1.436450
 H         4.542489         1.421864        -0.005120
 H         2.688189         1.396238         2.380832
 H         4.746431        -0.573604         2.486586
 H         2.981088        -1.770483        -0.567101
 H         1.932355        -1.809704         0.831014
