19
Iteration:     7charge 0 multiplicity 1
 C         0.233239        -0.454512        -0.684669
 C         1.559750        -0.081430        -0.169398
 C         2.477139         0.676848        -1.055442
 C         3.577161         0.876116        -0.066767
 C         2.776668         0.990028         1.241509
 O         1.404625         0.850050         0.964834
 C         3.513912        -0.352829         0.893625
 O         4.673527        -0.743895         1.481511
 C         2.451822        -1.171368         0.347493
 H        -0.226537        -1.107271         0.112266
 H        -0.357989         0.447235        -0.850129
 H         0.236280        -1.187755        -1.542337
 H         2.763373        -0.056196        -1.916124
 H         2.033831         1.622022        -1.370409
 H         4.492219         1.572259        -0.027254
 H         3.111421         1.448200         2.172479
 H         4.423857        -1.174157         2.308449
 H         2.746751        -2.005487        -0.336799
 H         1.991012        -1.797558         1.151694
