19
Iteration:  1986
 C         0.162640        -0.488165        -0.896017
 C         1.552529        -0.117273        -0.188712
 C         2.440461         0.796994        -0.966550
 C         3.516059         1.052576         0.100027
 C         2.697605         0.951555         1.392331
 O         1.363610         0.683678         1.043113
 C         3.515666        -0.281274         0.991725
 O         4.832119        -0.869122         1.364203
 C         2.520232        -1.185726         0.252226
 H        -0.380768        -1.417799        -0.346008
 H        -0.456661         0.527879        -0.800381
 H         0.231589        -0.785344        -2.009503
 H         2.828569         0.359883        -1.880956
 H         1.980108         1.779039        -1.455633
 H         4.517548         1.675132         0.080499
 H         2.862330         1.640699         2.213223
 H         4.927879        -0.682269         2.283315
 H         3.049449        -1.588420        -0.691554
 H         1.986330        -2.048219         0.799201
