19
Iteration:  3954
 C         0.277877        -0.460805        -1.012875
 C         1.525812        -0.028338        -0.237160
 C         2.527003         0.897103        -0.884744
 C         3.489928         1.027709         0.173249
 C         2.610948         0.862039         1.464120
 O         1.291190         0.627137         1.116480
 C         3.496144        -0.306160         0.970004
 O         4.823478        -0.773293         1.274501
 C         2.519203        -1.222033         0.207744
 H        -0.522067         0.179613        -0.554016
 H         0.428509        -0.588647        -2.119835
 H         0.245415        -1.425492        -0.599818
 H         3.081872         0.329003        -1.808137
 H         2.284096         1.821166        -1.306113
 H         4.508391         1.570131         0.060353
 H         2.694892         1.365583         2.397713
 H         4.742424        -1.101783         2.203849
 H         2.925787        -1.907943        -0.546022
 H         1.946612        -1.891194         0.779424
