19
Iteration:  2850charge 0 multiplicity 1
 C         0.191558        -0.366094        -0.836561
 C         1.599963        -0.101801        -0.287575
 C         2.561128         0.814642        -1.041332
 C         3.487189         0.998509         0.087819
 C         2.690100         0.856594         1.342512
 O         1.341771         0.656870         0.946509
 C         3.521376        -0.324707         0.884045
 O         4.732503        -0.671795         1.575612
 C         2.543228        -1.291885         0.308538
 H        -0.411582         0.353699        -0.347595
 H         0.246480        -0.175019        -1.853026
 H        -0.117591        -1.433677        -0.682904
 H         2.989542         0.377860        -1.880958
 H         2.003997         1.710317        -1.343697
 H         4.394595         1.536217         0.181034
 H         2.844926         1.382893         2.312169
 H         4.402307        -1.304669         2.205547
 H         2.962635        -2.015832        -0.495104
 H         1.902679        -1.968820         0.986296
