19
Iteration:   118charge 0 multiplicity 1
 C         0.039046        -0.339803        -0.762069
 C         1.451294        -0.017393        -0.221556
 C         2.528565         0.705188        -1.154414
 C         3.628266         0.812743        -0.078647
 C         2.794199         0.882739         1.245648
 O         1.393524         0.641031         1.031319
 C         3.561653        -0.377508         0.921918
 O         4.845645        -0.567704         1.585627
 C         2.426684        -1.229917         0.384010
 H        -0.777856        -0.500228         0.006204
 H        -0.263707         0.458330        -1.411596
 H         0.066320        -1.365816        -1.277361
 H         2.715428         0.052160        -2.125660
 H         2.216355         1.681427        -1.379256
 H         4.422524         1.471409        -0.072098
 H         3.007247         1.560619         2.091798
 H         4.767314        -0.757209         2.556656
 H         2.605205        -1.944693        -0.452910
 H         1.805903        -1.815880         1.101206
