19
Iteration:  2062
 C         0.202795        -0.492766        -0.756154
 C         1.503921        -0.060120        -0.244109
 C         2.468812         0.890563        -1.061877
 C         3.588351         0.935220         0.012910
 C         2.704000         0.866039         1.343568
 O         1.301115         0.641328         1.054196
 C         3.502890        -0.283546         0.930924
 O         4.730038        -0.772108         1.574614
 C         2.607130        -1.108626         0.192188
 H         0.168557        -1.605195        -0.630366
 H        -0.495768        -0.047231         0.036295
 H        -0.007728        -0.057067        -1.709328
 H         2.768293         0.442328        -1.931859
 H         2.095431         1.941968        -1.470097
 H         4.502235         1.644383         0.020767
 H         2.817899         1.531278         2.155703
 H         4.688954        -1.757147         1.227712
 H         3.199424        -1.660982        -0.612948
 H         2.363463        -2.054880         0.778983
