19
Iteration:  2554charge 0 multiplicity 1
 C         0.123326        -0.314676        -0.950948
 C         1.579329        -0.144776        -0.216669
 C         2.517477         0.852172        -1.021527
 C         3.542470         0.984607         0.034978
 C         2.650883         0.778407         1.381053
 O         1.304305         0.534591         1.013605
 C         3.629013        -0.267477         0.911870
 O         4.740411        -0.718665         1.560633
 C         2.566721        -1.241874         0.272558
 H        -0.473578         0.693116        -1.122313
 H         0.277424        -0.828237        -1.859492
 H        -0.435547        -0.875287        -0.229565
 H         2.952332         0.382391        -1.940952
 H         2.147893         1.842811        -1.312688
 H         4.414283         1.617801         0.134560
 H         2.653214         1.262935         2.360400
 H         4.920181        -0.002892         2.270888
 H         2.917774        -1.884558        -0.527594
 H         2.138308        -1.788511         1.030945
