19
Iteration:  3029
 C         0.309735        -0.623260        -0.878052
 C         1.547733        -0.112921        -0.159149
 C         2.566745         0.914891        -0.950203
 C         3.548310         1.015804         0.128847
 C         2.684307         0.910014         1.403631
 O         1.372927         0.797792         0.998305
 C         3.523849        -0.270592         0.890935
 O         4.602916        -0.858192         1.422249
 C         2.504890        -1.171334         0.214569
 H        -0.278362         0.154573        -1.435058
 H         0.553273        -1.340876        -1.751542
 H        -0.324279        -1.206502        -0.276373
 H         2.891221         0.519054        -1.866643
 H         1.816245         1.701811        -1.082606
 H         4.342629         1.588224         0.076015
 H         3.060242         1.470983         2.285888
 H         4.368426        -1.066087         2.289269
 H         3.030820        -1.505434        -0.758316
 H         2.235491        -2.052557         0.911964
