19
Iteration:  3063charge 0 multiplicity 1
 C         0.223366        -0.462409        -0.814353
 C         1.574384        -0.023864        -0.305537
 C         2.588649         0.911355        -1.085871
 C         3.523841         0.983236         0.072972
 C         2.683626         0.825049         1.351504
 O         1.317790         0.584208         1.021663
 C         3.550827        -0.284548         0.878572
 O         4.729442        -0.772515         1.609383
 C         2.504260        -1.140351         0.244249
 H        -0.596758         0.314157        -0.420725
 H         0.257672        -0.680352        -1.933861
 H        -0.151571        -1.395997        -0.456367
 H         2.908972         0.348095        -2.019403
 H         2.142220         1.825412        -1.433953
 H         4.313886         1.743869         0.109466
 H         2.742151         1.471888         2.200890
 H         4.468850        -1.422139         2.263529
 H         2.911429        -1.801166        -0.575277
 H         2.002003        -1.848445         0.999654
