19
Iteration:  3194charge 0 multiplicity 1
 C         0.155421        -0.547492        -0.848891
 C         1.539981        -0.018090        -0.298174
 C         2.583310         0.926210        -1.097611
 C         3.599799         1.079799         0.139190
 C         2.690987         0.797560         1.388515
 O         1.367592         0.587249         1.084412
 C         3.553827        -0.275602         0.924571
 O         4.656940        -0.771818         1.553579
 C         2.529851        -1.154652         0.135768
 H        -0.284689         0.166181        -1.675891
 H         0.345151        -1.551322        -1.194209
 H        -0.486415        -0.671711         0.006258
 H         2.959571         0.351596        -1.971205
 H         2.154009         1.967333        -1.343037
 H         4.415271         1.984232         0.277049
 H         2.856692         1.449286         2.262662
 H         4.329396        -1.615028         2.050689
 H         3.047036        -1.692598        -0.724013
 H         1.972862        -1.883201         0.913589
