19
Iteration:  1384
 C         0.150517        -0.385922        -0.703968
 C         1.573952        -0.197738        -0.264682
 C         2.461923         0.754121        -1.060860
 C         3.636089         0.889568         0.000674
 C         2.785687         0.984976         1.219535
 O         1.360718         0.763572         0.990836
 C         3.476450        -0.304299         0.993474
 O         4.764481        -0.659817         1.447407
 C         2.438395        -1.318647         0.392835
 H        -0.563402        -0.726802         0.058769
 H        -0.096662         0.558625        -1.051859
 H         0.047801        -1.188707        -1.530350
 H         2.674670         0.551185        -2.113812
 H         1.852224         1.742283        -1.000804
 H         4.725041         1.311522        -0.081025
 H         3.065710         1.736188         1.950055
 H         4.787779        -1.451072         1.959830
 H         2.787913        -2.059153        -0.362938
 H         1.980868        -1.950255         1.160627
