19
Iteration:  4408
 C         0.307693        -0.495292        -0.938798
 C         1.569182        -0.080644        -0.182255
 C         2.552178         0.784930        -1.017917
 C         3.568564         0.999503         0.015322
 C         2.765070         0.924895         1.382291
 O         1.250285         0.673838         1.112482
 C         3.508987        -0.250702         0.873159
 O         4.680227        -0.884165         1.449633
 C         2.481355        -1.157021         0.294866
 H         0.299371        -0.542408        -2.041894
 H        -0.185815        -1.413132        -0.563037
 H        -0.411119         0.269038        -0.783851
 H         2.859224         0.249996        -1.879006
 H         2.042261         1.845383        -1.159568
 H         4.273636         1.767952         0.040321
 H         2.874875         1.608437         2.247749
 H         4.726870        -0.488535         2.382017
 H         3.094506        -1.612797        -0.514206
 H         2.037616        -1.792408         1.085161
