19
Iteration:  2853
 C         0.185504        -0.389345        -0.848509
 C         1.588594        -0.099992        -0.284081
 C         2.572819         0.815634        -1.032500
 C         3.513779         0.992381         0.085042
 C         2.667289         0.866826         1.327837
 O         1.331737         0.660259         0.959480
 C         3.519152        -0.335722         0.897785
 O         4.750914        -0.692233         1.573534
 C         2.537137        -1.263432         0.311025
 H        -0.500143         0.263903        -0.359226
 H         0.221137        -0.170800        -1.978169
 H        -0.195937        -1.425918        -0.633464
 H         2.986971         0.387406        -1.939739
 H         1.994767         1.818044        -1.310321
 H         4.482681         1.682045         0.188563
 H         2.860066         1.428559         2.217865
 H         4.448063        -1.324201         2.240804
 H         2.901034        -1.973276        -0.457351
 H         2.008713        -1.965164         0.949986
