19
Iteration:  1433
 C         0.165000        -0.613547        -0.723069
 C         1.503846        -0.021829        -0.180018
 C         2.624778         0.745986        -1.095207
 C         3.541777         1.024237        -0.011533
 C         2.781969         1.002553         1.285018
 O         1.374026         0.745828         1.154243
 C         3.594761        -0.254718         0.754147
 O         4.681374        -0.892297         1.447899
 C         2.405861        -1.106883         0.308218
 H        -0.625715        -0.387401         0.033911
 H        -0.295402        -0.002434        -1.603744
 H         0.175550        -1.625142        -0.945943
 H         3.102712        -0.101054        -1.784076
 H         2.303283         1.565118        -1.697522
 H         4.324138         1.736968        -0.171146
 H         2.941207         1.557437         2.185993
 H         4.517347        -0.804213         2.445662
 H         2.704236        -1.903919        -0.367435
 H         2.090777        -1.754825         1.144491
