19
Iteration:  3716charge 0 multiplicity 1
 C         0.320619        -0.555395        -0.881260
 C         1.538690        -0.006647        -0.204850
 C         2.509688         0.921516        -0.997906
 C         3.503927         1.065505         0.124074
 C         2.729820         0.902617         1.405050
 O         1.354997         0.607490         1.071557
 C         3.503050        -0.250050         0.910958
 O         4.663136        -0.900425         1.445791
 C         2.523513        -1.147619         0.138994
 H        -0.463832         0.228685        -0.997824
 H         0.436354        -1.042341        -1.828314
 H        -0.261744        -1.249228        -0.338964
 H         2.933558         0.338635        -1.797372
 H         2.074494         1.962595        -1.389759
 H         4.366017         1.758680         0.070384
 H         2.905181         1.253413         2.414580
 H         4.449701        -0.847457         2.439733
 H         3.092359        -1.654643        -0.678575
 H         2.162772        -1.979537         0.815433
