19
Iteration:  3720
 C         0.302556        -0.525795        -0.844269
 C         1.541467        -0.023728        -0.192088
 C         2.515394         0.910777        -0.964310
 C         3.515197         1.076935         0.135818
 C         2.710553         0.870597         1.376564
 O         1.377727         0.618344         1.028469
 C         3.525418        -0.224420         0.901149
 O         4.647105        -0.890549         1.462701
 C         2.543576        -1.154605         0.127811
 H        -0.472031         0.201199        -0.960564
 H         0.368842        -0.988532        -1.824726
 H        -0.260012        -1.418787        -0.385428
 H         2.880537         0.391809        -1.860182
 H         2.028322         1.766197        -1.331468
 H         4.343103         1.699584         0.150637
 H         2.820423         1.284238         2.419099
 H         4.474246        -0.900456         2.396582
 H         3.014942        -1.627521        -0.724416
 H         2.093993        -1.965980         0.701759
