19
Iteration:  1503
 C         0.154177        -0.402014        -0.725490
 C         1.518388        -0.077655        -0.211326
 C         2.491073         0.659934        -1.139757
 C         3.566793         0.984938        -0.029493
 C         2.849767         0.869441         1.318534
 O         1.470055         0.651741         1.075639
 C         3.502306        -0.297946         0.826196
 O         4.696062        -0.671099         1.533953
 C         2.407791        -1.183387         0.335367
 H        -0.405256        -1.057901         0.005176
 H        -0.352132         0.557622        -0.802203
 H         0.280938        -0.914220        -1.788942
 H         2.844876         0.008340        -1.835452
 H         2.230377         1.621437        -1.729546
 H         4.376887         1.589412        -0.362720
 H         3.128102         1.329032         2.297272
 H         4.485126        -0.524390         2.524870
 H         2.592883        -1.786407        -0.566934
 H         1.820522        -1.908895         0.945759
