19
Iteration:   158
 C         0.141856        -0.628933        -0.690113
 C         1.501694        -0.138145        -0.138137
 C         2.531754         0.675661        -1.079740
 C         3.617301         0.998725         0.007295
 C         2.790162         1.064314         1.276936
 O         1.418827         0.903530         0.972151
 C         3.543268        -0.178106         0.916161
 O         4.591951        -0.914630         1.432209
 C         2.537560        -1.158726         0.338114
 H        -0.647460        -0.487942         0.109223
 H        -0.172545        -0.025594        -1.535068
 H         0.171098        -1.703809        -1.061700
 H         2.829242         0.162860        -1.980840
 H         2.038975         1.639187        -1.411418
 H         4.581194         1.629596        -0.249634
 H         2.963156         1.590720         2.170334
 H         4.230958        -1.470449         2.135632
 H         3.112733        -1.696491        -0.470235
 H         2.295670        -1.826035         1.182432
