19
Iteration:  3200charge 0 multiplicity 1
 C         0.168067        -0.483432        -0.869813
 C         1.594115        -0.089979        -0.320836
 C         2.597997         0.918912        -1.029202
 C         3.547210         1.101361         0.070863
 C         2.683844         0.784336         1.426331
 O         1.387816         0.570758         1.063464
 C         3.551300        -0.300899         0.902898
 O         4.664835        -0.747754         1.570777
 C         2.511737        -1.125805         0.153950
 H        -0.341685         0.128459        -1.530061
 H         0.177903        -1.578362        -1.212388
 H        -0.467944        -0.578153         0.043586
 H         2.886735         0.402319        -1.945052
 H         2.153661         1.899062        -1.342057
 H         4.309903         1.808418         0.163973
 H         2.847497         1.330532         2.332726
 H         4.328569        -1.508664         2.081178
 H         2.928691        -1.726949        -0.633003
 H         2.026148        -1.753476         0.811873
