19
Iteration:   780
 C         0.164766        -0.357934        -0.713511
 C         1.507624        -0.051803        -0.120864
 C         2.514499         0.665810        -1.053434
 C         3.639853         0.896559        -0.050424
 C         2.737930         0.869356         1.292546
 O         1.345012         0.809829         1.025360
 C         3.573346        -0.343795         0.803650
 O         4.714642        -0.669421         1.510319
 C         2.473483        -1.301952         0.312883
 H        -0.579781        -0.539667         0.010153
 H        -0.175215         0.384165        -1.420633
 H         0.250812        -1.343101        -1.240338
 H         2.720156         0.011287        -1.852534
 H         1.972882         1.548766        -1.637020
 H         4.534627         1.621467        -0.272507
 H         3.089873         1.521396         2.092574
 H         4.623493        -0.866344         2.450505
 H         2.758737        -1.940889        -0.552557
 H         2.052348        -1.909115         1.129235
