19
Iteration:  1782charge 0 multiplicity 1
 C         0.224943        -0.419389        -0.654131
 C         1.612857        -0.134877        -0.227335
 C         2.420311         0.859968        -1.074407
 C         3.506219         0.991011        -0.037025
 C         2.742621         0.847228         1.290223
 O         1.375120         0.719479         0.933440
 C         3.555181        -0.285233         0.852596
 O         4.634758        -0.835095         1.616585
 C         2.568070        -1.260524         0.316306
 H        -0.358772        -1.371416        -0.407384
 H        -0.346936         0.442304        -0.218987
 H         0.031108        -0.238309        -1.678208
 H         2.869377         0.375837        -2.066447
 H         1.898005         1.743197        -1.238405
 H         4.383366         1.596312        -0.143217
 H         2.927228         1.504991         2.134709
 H         5.414642        -0.331068         1.534329
 H         2.972516        -1.926419        -0.422854
 H         2.024704        -1.888189         1.040678
