19
Iteration:  4443charge 0 multiplicity 1
 C         0.148884        -0.372425        -0.811800
 C         1.578309        -0.125013        -0.233142
 C         2.538027         0.837353        -1.037939
 C         3.540430         0.997751         0.004533
 C         2.803229         0.815099         1.310899
 O         1.383633         0.621764         0.968588
 C         3.552184        -0.354652         0.907243
 O         4.664844        -0.632118         1.668228
 C         2.466759        -1.255584         0.180160
 H         0.151842        -0.048622        -1.860131
 H        -0.131697        -1.473353        -0.710917
 H        -0.465348         0.172739        -0.065401
 H         2.793476         0.544610        -2.102764
 H         1.927233         1.845812        -1.266580
 H         4.432573         1.700017         0.056937
 H         2.987011         1.317876         2.270114
 H         4.363925        -1.362131         2.287764
 H         3.083924        -1.754269        -0.598481
 H         2.087978        -2.043098         0.888992
