19
Iteration:   731
 C         0.200989        -0.585573        -0.639662
 C         1.506341        -0.059254        -0.129291
 C         2.487884         0.775253        -1.076468
 C         3.575565         0.920532        -0.006741
 C         2.745017         1.063397         1.191372
 O         1.368352         0.917294         0.871580
 C         3.588132        -0.244138         0.883271
 O         4.668035        -0.935476         1.532428
 C         2.555871        -1.192657         0.392794
 H        -0.049560        -1.526396         0.012182
 H        -0.683123         0.169034        -0.492419
 H         0.181967        -0.968936        -1.639665
 H         2.758830         0.227152        -2.077784
 H         2.309411         1.754160        -1.382458
 H         4.371128         1.648319        -0.152840
 H         3.097134         1.469237         2.123256
 H         4.224954        -1.688397         1.987095
 H         2.864285        -1.871973        -0.423525
 H         1.966748        -1.797425         1.122061
