19
Iteration:  4591
 C         0.106543        -0.379882        -0.725740
 C         1.594163        -0.120375        -0.284045
 C         2.574838         0.842783        -1.134365
 C         3.534293         1.073116         0.091672
 C         2.671115         0.942988         1.347082
 O         1.394480         0.563480         0.968867
 C         3.504450        -0.308007         0.913206
 O         4.683444        -0.759189         1.623132
 C         2.572912        -1.249364         0.203101
 H        -0.175949        -0.616752        -1.748096
 H        -0.329916        -1.063329         0.013879
 H        -0.256001         0.607449        -0.514998
 H         3.148704         0.302059        -1.978137
 H         2.291726         1.774140        -1.542475
 H         4.468058         1.723894        -0.181054
 H         2.822494         1.350550         2.369420
 H         4.485506        -1.600558         2.003992
 H         3.162452        -1.736047        -0.579012
 H         1.974664        -1.982679         0.683592
