19
Iteration:  3657
 C         0.225548        -0.379180        -0.942787
 C         1.571279        -0.112044        -0.244875
 C         2.513576         0.864053        -0.970506
 C         3.509952         1.006472         0.154469
 C         2.613516         0.803363         1.442593
 O         1.309207         0.651629         1.050867
 C         3.484185        -0.317333         0.894005
 O         4.831194        -0.684533         1.432345
 C         2.519235        -1.285646         0.203389
 H         0.168484         0.405119        -1.679326
 H         0.274136        -1.424963        -1.441900
 H        -0.495967        -0.268793        -0.113112
 H         2.922317         0.517068        -2.016588
 H         1.986554         1.789954        -1.104592
 H         4.430206         1.565034         0.226201
 H         2.886221         1.418456         2.337035
 H         4.594022        -1.390919         2.074888
 H         3.099529        -1.859204        -0.525716
 H         2.176613        -1.936984         1.003001
