19
Iteration:  1925
 C         0.091498        -0.513501        -0.821340
 C         1.492191        -0.093735        -0.248140
 C         2.432814         0.958135        -0.983149
 C         3.510835         0.994130         0.044517
 C         2.800130         0.853706         1.347587
 O         1.419959         0.663481         1.057096
 C         3.531038        -0.268666         0.845285
 O         4.682812        -0.791881         1.619855
 C         2.635811        -1.239410         0.195768
 H        -0.647421        -0.341988        -0.060025
 H        -0.228382         0.081185        -1.618626
 H         0.158491        -1.493996        -1.172445
 H         2.884768         0.632751        -2.005507
 H         1.896200         1.838058        -0.979791
 H         4.462055         1.594416        -0.017895
 H         2.984117         1.521009         2.155251
 H         5.342590        -1.055606         0.979033
 H         2.958535        -1.842588        -0.616330
 H         2.148985        -1.924985         0.876993
