19
Iteration:   726
 C         0.234724        -0.564577        -0.622387
 C         1.532761        -0.038090        -0.093258
 C         2.521186         0.727902        -1.086970
 C         3.521457         0.936984         0.006265
 C         2.722042         1.081933         1.163642
 O         1.373246         0.900996         0.906163
 C         3.611762        -0.300914         0.853490
 O         4.645420        -0.919678         1.527704
 C         2.536002        -1.171265         0.387675
 H        -0.109863        -1.465752        -0.225032
 H        -0.667932         0.051225        -0.531625
 H         0.232566        -0.789712        -1.734757
 H         2.801908         0.142148        -1.914988
 H         2.127770         1.761167        -1.513397
 H         4.443929         1.595374        -0.239476
 H         3.057621         1.511297         2.104715
 H         4.319266        -1.672176         2.084764
 H         2.771133        -1.771554        -0.499170
 H         2.106720        -1.872705         1.152138
