19
Iteration:  2141
 C         0.167501        -0.388196        -0.867793
 C         1.552638        -0.142635        -0.221092
 C         2.465223         0.862984        -1.007791
 C         3.514919         1.005183         0.078475
 C         2.751079         0.903103         1.335418
 O         1.357875         0.632557         1.059828
 C         3.531759        -0.358960         0.941790
 O         4.725226        -0.691707         1.575882
 C         2.549452        -1.305357         0.211882
 H         0.044554        -1.462313        -1.374188
 H        -0.592007        -0.267799        -0.082845
 H         0.019518         0.335172        -1.691372
 H         2.789891         0.347853        -1.860802
 H         1.933020         1.844886        -1.062822
 H         4.343631         1.612152        -0.029390
 H         2.893387         1.477703         2.273532
 H         5.291766        -0.912703         0.814048
 H         3.101039        -1.621065        -0.700821
 H         1.991527        -2.080061         0.833216
