19
Iteration:  4089charge 0 multiplicity 1
 C         0.335039        -0.502374        -1.045140
 C         1.489781        -0.043133        -0.227012
 C         2.492274         1.035410        -0.931519
 C         3.526221         1.035738         0.151940
 C         2.634137         0.826115         1.529034
 O         1.308394         0.524816         1.188648
 C         3.534413        -0.266602         0.856576
 O         4.759452        -0.839320         1.300552
 C         2.562846        -1.167462         0.245905
 H        -0.039307         0.283633        -1.687585
 H         0.651512        -1.382817        -1.599544
 H        -0.670404        -0.743399        -0.502394
 H         2.860365         0.643029        -1.835594
 H         1.885806         1.975119        -1.139391
 H         4.388627         1.566961         0.121153
 H         2.784814         1.516877         2.382955
 H         4.564498        -1.098590         2.275847
 H         2.915906        -1.496453        -0.725890
 H         2.214502        -2.007361         0.856988
