19
Iteration:  2802
 C         0.134265        -0.403286        -0.912334
 C         1.487921        -0.038113        -0.239400
 C         2.500205         0.849583        -1.055672
 C         3.541296         0.923793         0.061856
 C         2.671533         0.922854         1.369476
 O         1.306084         0.617804         1.002018
 C         3.573880        -0.349500         0.952375
 O         4.828692        -0.754725         1.620932
 C         2.569167        -1.227542         0.205292
 H        -0.504623         0.601546        -0.824422
 H         0.406463        -0.728388        -1.994613
 H        -0.187301        -1.289079        -0.441222
 H         2.889056         0.272655        -2.009773
 H         2.198907         1.813642        -1.386517
 H         4.426108         1.692303        -0.045207
 H         2.765294         1.649904         2.138477
 H         4.578180        -0.886761         2.610365
 H         2.900951        -1.861845        -0.611035
 H         2.170119        -1.967109         0.949097
