19
Iteration:   623charge 0 multiplicity 1
 C         0.149924        -0.493067        -0.680715
 C         1.495899        -0.059222        -0.192725
 C         2.567566         0.643754        -1.114858
 C         3.641567         0.941093        -0.099857
 C         2.762718         1.011700         1.228523
 O         1.405106         0.740741         1.074305
 C         3.551047        -0.252213         0.899371
 O         4.648405        -0.788838         1.531281
 C         2.465275        -1.143665         0.315323
 H        -0.415139        -0.655386         0.293373
 H        -0.411081         0.224279        -1.370891
 H         0.152707        -1.397862        -1.239204
 H         3.063388        -0.072593        -1.884945
 H         2.237121         1.656868        -1.577201
 H         4.448157         1.806726        -0.222120
 H         3.023941         1.622024         2.096595
 H         4.237255        -1.288201         2.233742
 H         2.829718        -1.895045        -0.433714
 H         1.911354        -1.763461         1.081269
