19
Iteration:    24
 C         0.324579        -0.662415        -0.624305
 C         1.545776        -0.014694        -0.122457
 C         2.505046         0.729794        -1.092632
 C         3.609535         0.903411        -0.049091
 C         2.778157         0.984469         1.284084
 O         1.369383         1.010876         0.941957
 C         3.506907        -0.319806         0.864225
 O         4.641034        -0.814396         1.460509
 C         2.404527        -1.212144         0.378781
 H         0.028502        -1.565650        -0.122035
 H        -0.554336         0.071399        -0.640123
 H         0.519365        -0.936873        -1.627211
 H         2.785813         0.200752        -1.946015
 H         2.048144         1.740447        -1.368749
 H         4.507477         1.325818        -0.274231
 H         3.073878         1.656717         2.147016
 H         4.356537        -1.599892         1.980761
 H         2.634967        -1.859063        -0.458474
 H         1.878141        -1.821472         1.131464
