19
Iteration:  3266
 C         0.264881        -0.438714        -0.953508
 C         1.526534        -0.003336        -0.204826
 C         2.554047         0.866312        -1.028366
 C         3.501652         1.065112         0.119422
 C         2.672695         0.835278         1.398106
 O         1.381274         0.572647         1.072202
 C         3.514997        -0.273405         0.896061
 O         4.741650        -0.767706         1.470648
 C         2.450404        -1.265668         0.242105
 H        -0.447801         0.329731        -0.847044
 H         0.563433        -0.602828        -2.087700
 H        -0.106172        -1.416903        -0.616993
 H         3.010934         0.255685        -1.828198
 H         1.992371         1.765775        -1.455626
 H         4.494891         1.705014         0.257626
 H         2.899086         1.375720         2.316642
 H         4.651525        -0.773263         2.474056
 H         2.752147        -1.910957        -0.586266
 H         1.938126        -1.792693         0.988632
