19
Iteration:  2401charge 0 multiplicity 1
 C         0.206173        -0.392403        -0.901479
 C         1.602453        -0.118998        -0.230242
 C         2.538540         0.835932        -1.082775
 C         3.517607         0.987761         0.084554
 C         2.705133         0.786579         1.424831
 O         1.357518         0.648876         1.022855
 C         3.530942        -0.268750         0.873712
 O         4.680708        -0.702459         1.509417
 C         2.525117        -1.291299         0.287630
 H        -0.583793         0.395519        -0.462489
 H         0.226623        -0.217102        -2.007858
 H        -0.205410        -1.389265        -0.787363
 H         3.014014         0.287188        -1.857751
 H         1.811227         1.632965        -1.369291
 H         4.441711         1.644013         0.060884
 H         2.815859         1.216294         2.438403
 H         4.950252        -0.024001         2.151184
 H         2.944199        -2.101179        -0.388107
 H         2.001062        -1.814496         1.157484
