19
Iteration:  2382
 C         0.265210        -0.481869        -0.840457
 C         1.545318        -0.099026        -0.238277
 C         2.592968         0.809566        -0.976062
 C         3.554926         1.033868         0.124211
 C         2.664719         0.955207         1.319569
 O         1.320046         0.599212         1.003758
 C         3.531080        -0.309149         0.859004
 O         4.718210        -0.750477         1.442523
 C         2.433397        -1.194971         0.311866
 H        -0.431417         0.190496        -0.338387
 H         0.314059        -0.344309        -1.867528
 H         0.168127        -1.524238        -0.669684
 H         3.046701         0.320871        -1.804374
 H         2.173524         1.888639        -1.320640
 H         4.433397         1.583088         0.123560
 H         2.832326         1.622545         2.189612
 H         4.634507        -0.727736         2.377961
 H         2.805409        -1.881104        -0.516196
 H         1.895560        -2.030732         0.890975
