19
Iteration:  4656charge 0 multiplicity 1
 C         0.304179        -0.589093        -0.952672
 C         1.537744        -0.027533        -0.282557
 C         2.505982         0.896023        -0.963570
 C         3.469078         0.946349         0.139195
 C         2.743560         0.834867         1.489952
 O         1.396335         0.724922         1.034304
 C         3.527706        -0.291719         0.946719
 O         4.719574        -0.802406         1.332959
 C         2.435329        -1.118620         0.329681
 H         0.308618        -1.666103        -1.124256
 H        -0.633359        -0.291513        -0.443983
 H         0.244433        -0.070117        -1.887316
 H         2.768999         0.413198        -1.988159
 H         2.267143         1.867308        -1.240362
 H         4.322365         1.694729         0.166457
 H         2.882665         1.557481         2.262704
 H         4.583414        -1.317389         2.201376
 H         2.754199        -1.828412        -0.424571
 H         1.904209        -1.677923         1.047308
