19
Iteration:   361charge 0 multiplicity 1
 C         0.099034        -0.339467        -0.742466
 C         1.535828        -0.167188        -0.255115
 C         2.504329         0.663712        -1.101641
 C         3.573784         0.879864        -0.055029
 C         2.768601         0.983536         1.233563
 O         1.376538         0.735842         1.020847
 C         3.557265        -0.296243         0.906354
 O         4.788793        -0.740372         1.539725
 C         2.473138        -1.234853         0.416472
 H        -0.390059        -0.066456         0.162157
 H        -0.109878         0.365537        -1.661333
 H        -0.205721        -1.273858        -1.092066
 H         2.818580         0.148748        -2.002783
 H         2.034651         1.617097        -1.382300
 H         4.370491         1.602466        -0.243585
 H         2.958998         1.812885         1.979745
 H         4.632959        -1.017329         2.478448
 H         2.800668        -1.973524        -0.307084
 H         1.845726        -1.774845         1.199270
