19
Iteration:  2724
 C         0.143809        -0.452900        -0.891360
 C         1.530533        -0.133249        -0.244975
 C         2.486903         0.869650        -1.005741
 C         3.529191         0.999242         0.127002
 C         2.654753         0.890367         1.378708
 O         1.351395         0.708440         0.966357
 C         3.567838        -0.309678         0.940545
 O         4.773388        -0.737947         1.567499
 C         2.592582        -1.265303         0.192583
 H        -0.143674         0.335079        -1.625876
 H         0.344123        -1.545049        -1.307930
 H        -0.523758        -0.502726         0.012724
 H         2.811392         0.396751        -1.961403
 H         2.033322         1.846276        -1.250531
 H         4.470475         1.614244         0.090023
 H         2.773762         1.565439         2.263279
 H         4.489972        -1.565769         2.060867
 H         3.174514        -1.590122        -0.650680
 H         2.045822        -2.013056         0.796521
