19
Iteration:  3606
 C         0.167980        -0.459853        -0.798311
 C         1.623484        -0.092030        -0.244002
 C         2.491952         0.888439        -0.970296
 C         3.531341         1.030974         0.133051
 C         2.734364         0.793217         1.353993
 O         1.320215         0.643314         0.977368
 C         3.580504        -0.313957         0.847029
 O         4.649864        -0.766519         1.563204
 C         2.603898        -1.198632         0.131935
 H        -0.134795         0.525163        -1.182950
 H         0.151679        -1.262086        -1.530120
 H        -0.368609        -0.764212         0.039420
 H         2.966774         0.746824        -1.929067
 H         1.886861         1.846794        -1.247547
 H         4.289779         1.954995         0.100607
 H         3.012160         1.304905         2.291799
 H         4.245705        -1.128762         2.316953
 H         2.973143        -1.754629        -0.786845
 H         2.193106        -2.036759         0.764861
