19
Iteration:  1203
 C         0.191853        -0.433707        -0.669342
 C         1.551251        -0.064942        -0.172960
 C         2.482797         0.840977        -1.061030
 C         3.579644         0.879381        -0.046566
 C         2.800714         0.893945         1.228952
 O         1.422772         0.681459         1.039885
 C         3.538839        -0.331490         0.772537
 O         4.588508        -0.632814         1.627999
 C         2.482641        -1.275996         0.301929
 H        -0.493522        -0.255012         0.122661
 H        -0.067227         0.351497        -1.444860
 H         0.177709        -1.470345        -1.169543
 H         2.835213         0.272313        -1.993733
 H         1.959522         1.739528        -1.349091
 H         4.460049         1.575245        -0.227522
 H         3.012169         1.381188         2.144848
 H         5.131739        -1.335914         1.188965
 H         2.838967        -2.095609        -0.408316
 H         1.967715        -1.790366         1.143000
