19
Iteration:  2058charge 0 multiplicity 1
 C         0.183607        -0.479966        -0.735641
 C         1.484711        -0.046523        -0.248452
 C         2.492788         0.897138        -1.058380
 C         3.558052         0.941825         0.015597
 C         2.721912         0.829803         1.331121
 O         1.323236         0.652084         1.061889
 C         3.547084        -0.305873         0.933530
 O         4.712295        -0.744549         1.614634
 C         2.612356        -1.164444         0.168446
 H         0.115499        -1.504164        -0.708922
 H        -0.477524        -0.041271        -0.069412
 H        -0.031506        -0.071874        -1.743462
 H         2.614855         0.360779        -2.108037
 H         2.061821         1.813692        -1.444588
 H         4.404771         1.668200         0.071845
 H         2.831163         1.597970         2.117002
 H         4.897893        -1.552651         1.196144
 H         3.126382        -1.571438        -0.697397
 H         2.218480        -2.038602         0.628108
