19
Iteration:   274charge 0 multiplicity 1
 C         0.113077        -0.395123        -0.707054
 C         1.546773        -0.227333        -0.206162
 C         2.548032         0.609507        -1.033455
 C         3.630095         0.997388        -0.053686
 C         2.804210         1.015923         1.216281
 O         1.389539         0.830145         0.965879
 C         3.521781        -0.344535         0.847190
 O         4.678255        -0.695577         1.532049
 C         2.425203        -1.314611         0.394183
 H        -0.401548        -1.239369        -0.331819
 H        -0.449854         0.571503        -0.290530
 H         0.027549        -0.248141        -1.758537
 H         3.021012         0.146905        -1.895436
 H         2.097993         1.524844        -1.518722
 H         4.685889         1.481348        -0.340054
 H         3.112620         1.471514         2.137831
 H         4.483080        -0.915498         2.437574
 H         2.849235        -2.032871        -0.254624
 H         1.958852        -1.762201         1.281873
