19
Iteration:   341
 C         0.222319        -0.471319        -0.658723
 C         1.530364        -0.099807        -0.108462
 C         2.455291         0.647645        -1.134856
 C         3.527866         1.030648        -0.053944
 C         2.817450         0.963336         1.282856
 O         1.453065         0.838851         0.917692
 C         3.552952        -0.214308         0.865309
 O         4.624164        -0.870035         1.495060
 C         2.496452        -1.213842         0.404289
 H        -0.598129        -0.490441         0.061674
 H         0.067377         0.210913        -1.536955
 H         0.408414        -1.380681        -1.162966
 H         2.766280         0.059804        -1.930442
 H         1.875177         1.509345        -1.644324
 H         4.434543         1.512693        -0.240772
 H         2.902508         1.489570         2.291231
 H         4.199285        -1.215330         2.345608
 H         2.843234        -1.938140        -0.319312
 H         2.175245        -1.717024         1.297470
