19
Iteration:  3422charge 0 multiplicity 1
 C         0.302814        -0.522532        -0.858074
 C         1.543916        -0.074688        -0.261885
 C         2.561264         0.882935        -0.972823
 C         3.523277         1.151324         0.178607
 C         2.661980         0.829962         1.458603
 O         1.317220         0.704181         0.963393
 C         3.528936        -0.304668         0.897116
 O         4.675933        -0.916191         1.399105
 C         2.503861        -1.165820         0.236939
 H        -0.106102         0.073318        -1.723901
 H         0.491907        -1.475732        -1.364548
 H        -0.368131        -0.624599         0.008533
 H         3.012873         0.372297        -1.745806
 H         2.027753         1.838451        -1.310556
 H         4.413671         1.593660        -0.012264
 H         2.682301         1.263787         2.486283
 H         5.015137        -0.402119         2.176231
 H         2.827397        -1.820081        -0.534639
 H         2.133406        -1.744935         1.002313
