19
Iteration:  1711charge 0 multiplicity 1
 C         0.244567        -0.515244        -0.794085
 C         1.535048        -0.173436        -0.153472
 C         2.461396         0.872570        -1.017373
 C         3.536158         1.037994         0.018401
 C         2.831976         0.996705         1.302657
 O         1.417536         0.740817         0.978256
 C         3.506710        -0.268063         0.907163
 O         4.674119        -0.804153         1.437178
 C         2.478439        -1.256646         0.396372
 H        -0.493991        -0.764114        -0.062529
 H        -0.066507         0.365023        -1.348540
 H         0.172375        -1.458362        -1.520078
 H         2.745833         0.426358        -1.926327
 H         1.791020         1.888970        -1.220811
 H         4.549844         1.564558        -0.198965
 H         2.990321         1.528012         2.249942
 H         4.443312        -1.698671         1.581870
 H         2.837279        -2.026284        -0.358167
 H         1.975565        -1.888397         1.169239
