19
Iteration:  2997charge 0 multiplicity 1
 C         0.209947        -0.462145        -0.931664
 C         1.570208        -0.071583        -0.241938
 C         2.518466         0.907900        -1.020983
 C         3.501413         1.012078         0.106948
 C         2.674092         0.880174         1.372265
 O         1.364092         0.573555         1.027209
 C         3.545658        -0.308240         0.931887
 O         4.805845        -0.794116         1.516529
 C         2.458451        -1.156705         0.245773
 H        -0.043675         0.301759        -1.754146
 H         0.398397        -1.485634        -1.378546
 H        -0.470476        -0.319764        -0.176253
 H         2.947497         0.406578        -1.922602
 H         1.928144         1.792914        -1.270277
 H         4.252871         1.659005         0.098189
 H         2.938287         1.535487         2.234288
 H         4.531677        -1.101946         2.448053
 H         2.791042        -1.879372        -0.524656
 H         1.811645        -1.758431         0.926907
