19
Iteration:   972
 C         0.180694        -0.425139        -0.787041
 C         1.507166        -0.122511        -0.218456
 C         2.448489         0.696124        -1.052663
 C         3.511263         0.940494         0.038718
 C         2.804190         0.955465         1.377112
 O         1.436205         0.762264         0.949726
 C         3.551242        -0.316718         0.813990
 O         4.779907        -0.759718         1.455329
 C         2.427160        -1.224436         0.411616
 H        -0.494000        -0.564936         0.097294
 H        -0.285640         0.373314        -1.272748
 H         0.087025        -1.279875        -1.514025
 H         2.904882         0.124719        -1.988634
 H         1.953060         1.581596        -1.371363
 H         4.480829         1.526344        -0.163233
 H         2.874692         1.614816         2.210087
 H         4.608862        -0.675276         2.445829
 H         2.901164        -1.960489        -0.305915
 H         1.893932        -1.577667         1.303310
