19
Iteration:  4609
 C         0.172657        -0.372272        -0.772544
 C         1.564374        -0.102070        -0.244669
 C         2.499838         0.827908        -1.029535
 C         3.543525         1.030512         0.062551
 C         2.736180         0.825821         1.354195
 O         1.370986         0.655595         0.956238
 C         3.589237        -0.275164         0.894868
 O         4.646092        -0.777273         1.626050
 C         2.584641        -1.204389         0.183309
 H         0.326576        -1.215059        -1.491539
 H        -0.476277        -0.841589        -0.038654
 H        -0.412206         0.496321        -1.189119
 H         2.829797         0.478782        -2.064221
 H         1.816045         1.617077        -1.398849
 H         4.386024         1.726098         0.141090
 H         2.817811         1.584439         2.183732
 H         4.440079        -1.694678         1.771830
 H         2.997424        -1.772075        -0.640774
 H         2.257715        -1.950698         0.963715
