19
Iteration:  1832charge 0 multiplicity 1
 C         0.324024        -0.547017        -0.808687
 C         1.537603        -0.057746        -0.101619
 C         2.483950         0.794726        -1.089247
 C         3.506213         0.962128         0.023786
 C         2.753871         0.943580         1.383465
 O         1.355507         0.844098         1.072694
 C         3.455338        -0.304840         0.914877
 O         4.729212        -0.765981         1.411107
 C         2.472401        -1.222685         0.307722
 H        -0.236798        -1.279157        -0.242479
 H        -0.584377         0.073721        -1.055124
 H         0.714990        -0.954340        -1.810325
 H         2.767394         0.276255        -1.930097
 H         1.899983         1.788744        -1.248635
 H         4.421533         1.456288        -0.025877
 H         3.005686         1.387689         2.334251
 H         4.805678        -1.755148         1.285785
 H         2.901031        -1.761512        -0.597009
 H         2.085633        -2.042551         0.919860
