19
Iteration:  4137
 C         0.222942        -0.481881        -0.848980
 C         1.562184        -0.107830        -0.267974
 C         2.580552         1.046873        -0.950209
 C         3.509259         1.097931         0.201687
 C         2.634424         0.765843         1.489479
 O         1.276080         0.542803         1.020430
 C         3.501888        -0.292963         0.908566
 O         4.757181        -0.768715         1.365719
 C         2.616503        -1.180127         0.127288
 H        -0.263293         0.339569        -1.502294
 H         0.385801        -1.459880        -1.438709
 H        -0.606740        -0.699798        -0.160324
 H         2.816505         0.794902        -2.004165
 H         2.021629         2.002677        -0.909921
 H         4.395445         1.842051         0.426937
 H         2.885180         1.189803         2.476234
 H         4.646178        -1.627502         1.771702
 H         3.105989        -1.790482        -0.703489
 H         2.086565        -1.908317         0.872181
