19
Iteration:  2510
 C         0.304851        -0.563950        -0.877964
 C         1.571023        -0.069924        -0.247104
 C         2.476952         0.888456        -1.024876
 C         3.536272         1.046493         0.150767
 C         2.687760         0.936107         1.431301
 O         1.378193         0.642216         1.023591
 C         3.465550        -0.293786         1.020414
 O         4.664823        -0.795953         1.400439
 C         2.540336        -1.209886         0.187389
 H         0.007553         0.218479        -1.707553
 H         0.524279        -1.503386        -1.333615
 H        -0.479032        -0.510053        -0.167326
 H         2.727509         0.491772        -1.993338
 H         1.894091         1.782867        -1.222832
 H         4.463390         1.464235         0.083099
 H         2.895249         1.507390         2.328991
 H         4.488201        -1.047755         2.379491
 H         3.141056        -1.522757        -0.644826
 H         2.192436        -1.980988         0.742261
