19
Iteration:  3817
 C         0.311168        -0.456410        -0.991522
 C         1.623338        -0.144578        -0.244574
 C         2.479085         0.904086        -0.935807
 C         3.487878         1.035213         0.192059
 C         2.626688         0.865945         1.496220
 O         1.313057         0.601595         1.073388
 C         3.532512        -0.257861         0.895318
 O         4.790725        -0.871329         1.312485
 C         2.510938        -1.154468         0.288316
 H        -0.230691         0.455704        -1.307855
 H         0.390930        -0.970627        -1.962641
 H        -0.449350        -1.117367        -0.413816
 H         2.869416         0.601605        -1.936419
 H         2.006977         1.982196        -1.146837
 H         4.283579         1.850449         0.134821
 H         2.695834         1.524284         2.342086
 H         4.752780        -0.714307         2.268808
 H         2.870718        -1.756148        -0.568572
 H         1.832703        -1.810829         0.944486
