19
Iteration:  3546charge 0 multiplicity 1
 C         0.338885        -0.491079        -0.947936
 C         1.525437        -0.045558        -0.170981
 C         2.490965         0.832693        -0.980199
 C         3.543153         1.059440         0.165284
 C         2.648307         0.931711         1.455555
 O         1.340768         0.692528         0.993344
 C         3.535026        -0.291095         0.838423
 O         4.721574        -0.859483         1.404711
 C         2.517133        -1.240645         0.279661
 H        -0.531845         0.164906        -0.642106
 H         0.417349        -0.268933        -2.011861
 H        -0.152033        -1.505758        -0.720881
 H         3.070040         0.155499        -1.749090
 H         1.863301         1.604611        -1.342809
 H         4.383179         1.784072         0.056544
 H         2.777864         1.222658         2.444143
 H         4.781423        -0.756224         2.369332
 H         2.723710        -1.789109        -0.605116
 H         2.022397        -1.763741         1.079933
