19
Iteration:  2546
 C         0.171707        -0.334749        -0.942051
 C         1.494085        -0.074211        -0.189089
 C         2.563837         0.802995        -1.033878
 C         3.572835         1.019743         0.103108
 C         2.659315         0.751917         1.384921
 O         1.294123         0.528833         1.000016
 C         3.582542        -0.262504         0.776857
 O         4.761790        -0.722272         1.565595
 C         2.578211        -1.203735         0.289558
 H        -0.213661         0.636459        -1.356854
 H         0.183150        -1.060087        -1.788267
 H        -0.628190        -0.841502        -0.261736
 H         2.772052         0.294176        -1.892748
 H         1.990343         1.788428        -1.229216
 H         4.375561         1.865687         0.287881
 H         2.686304         1.219280         2.372139
 H         5.051379        -0.206953         2.401568
 H         2.772359        -1.984052        -0.465086
 H         2.186578        -1.775631         1.134266
