19
Iteration:  2586
 C         0.287672        -0.456413        -0.800203
 C         1.582728        -0.138330        -0.195301
 C         2.493192         0.856834        -1.021723
 C         3.526380         1.036277         0.088248
 C         2.673066         0.896616         1.364426
 O         1.373028         0.676966         0.969593
 C         3.506768        -0.298112         0.942054
 O         4.616158        -0.812167         1.553885
 C         2.582562        -1.250599         0.155657
 H        -0.540336         0.296917        -0.472262
 H         0.324355        -0.518386        -1.850529
 H        -0.004622        -1.480540        -0.611304
 H         2.949253         0.350388        -1.986967
 H         1.884370         1.726099        -1.306202
 H         4.479420         1.644980        -0.041215
 H         2.805390         1.473898         2.289957
 H         4.881166        -0.195225         2.196871
 H         2.997862        -1.601153        -0.801349
 H         2.102684        -2.051869         0.741053
