19
Iteration:  3629charge 0 multiplicity 1
 C         0.112666        -0.356131        -0.807439
 C         1.528440        -0.042870        -0.268590
 C         2.601219         0.828558        -1.031888
 C         3.511917         1.092660         0.146389
 C         2.680484         0.811706         1.419963
 O         1.339815         0.495667         1.030784
 C         3.490457        -0.266224         0.850796
 O         4.770314        -0.686779         1.589373
 C         2.562352        -1.229782         0.087197
 H        -0.166670         0.441454        -1.553579
 H         0.212813        -1.305583        -1.248438
 H        -0.561118        -0.466936         0.027376
 H         3.039836         0.352313        -1.844000
 H         2.103400         1.715283        -1.608424
 H         4.630319         1.521542         0.053018
 H         2.860532         1.356930         2.289352
 H         4.474082        -1.535313         2.083046
 H         3.141376        -1.774039        -0.701564
 H         2.189362        -2.056688         0.755916
