19
Iteration:  4513charge 0 multiplicity 1
 C         0.340935        -0.482180        -0.965566
 C         1.538266        -0.059840        -0.174383
 C         2.441147         0.868565        -0.994831
 C         3.574021         0.998782         0.028191
 C         2.775664         0.951998         1.349563
 O         1.267100         0.647379         1.024178
 C         3.516267        -0.251095         0.885858
 O         4.673377        -0.920870         1.430890
 C         2.493701        -1.141475         0.442682
 H         0.427527        -0.204651        -2.034348
 H         0.324700        -1.559298        -0.944907
 H        -0.600499        -0.218836        -0.471914
 H         2.930014         0.472666        -1.948294
 H         2.144637         1.790214        -1.287952
 H         4.491556         1.538457        -0.118607
 H         3.140548         1.482643         2.270359
 H         4.548886        -0.825715         2.402926
 H         2.824508        -1.779785        -0.358659
 H         2.091570        -1.697240         1.278288
