19
Iteration:  2392charge 0 multiplicity 1
 C         0.267154        -0.442625        -0.865535
 C         1.588069        -0.149293        -0.218353
 C         2.594633         0.838259        -1.013659
 C         3.531432         1.026376         0.110638
 C         2.684842         0.871849         1.345416
 O         1.329843         0.612287         1.018095
 C         3.495438        -0.320544         0.868516
 O         4.683263        -0.710180         1.454874
 C         2.489484        -1.256642         0.293578
 H        -0.508010         0.255156        -0.387459
 H         0.263916        -0.157641        -1.883117
 H        -0.204089        -1.385746        -0.712054
 H         2.969035         0.330920        -1.856508
 H         2.170538         1.878058        -1.445743
 H         4.447154         1.562225         0.052422
 H         2.872396         1.337532         2.338613
 H         4.758716        -0.225229         2.285901
 H         2.783089        -1.955267        -0.553929
 H         1.962802        -1.647015         1.271278
