19
Iteration:  3752charge 0 multiplicity 1
 C         0.116408        -0.427142        -0.783754
 C         1.572138        -0.079718        -0.322540
 C         2.533223         0.988297        -0.991961
 C         3.509434         1.008328         0.081832
 C         2.673373         0.799393         1.337468
 O         1.365864         0.599043         0.975804
 C         3.566751        -0.311649         0.884925
 O         4.698353        -0.720228         1.622471
 C         2.644232        -1.277570         0.128912
 H        -0.469796         0.346572        -0.368819
 H        -0.022723        -0.293210        -1.824335
 H         0.022922        -1.403287        -0.218884
 H         2.886196         0.562807        -1.931565
 H         1.969937         1.937004        -1.200236
 H         4.395859         1.538735         0.185835
 H         2.798277         1.078631         2.422927
 H         4.536782        -1.378420         2.395454
 H         3.116173        -1.675580        -0.764653
 H         1.893549        -1.930130         0.637707
