19
Iteration:  2313
 C         0.214116        -0.474304        -0.809173
 C         1.545449        -0.095253        -0.278831
 C         2.503786         0.922751        -1.069631
 C         3.540499         0.995474        -0.010103
 C         2.741326         0.848626         1.363856
 O         1.393368         0.572528         1.060749
 C         3.534465        -0.306618         0.836739
 O         4.586976        -0.776967         1.664392
 C         2.536432        -1.150073         0.246771
 H        -0.360476         0.423534        -1.179402
 H         0.249127        -1.279292        -1.565027
 H        -0.268273        -0.898684         0.040119
 H         2.878757         0.525111        -2.006106
 H         1.996326         1.812860        -1.506714
 H         4.473712         1.667506         0.015351
 H         3.081479         1.340694         2.245099
 H         5.423590        -0.204087         1.606849
 H         2.944879        -1.838521        -0.519510
 H         2.033287        -1.929012         0.847380
