19
Iteration:  4448
 C         0.167797        -0.372263        -0.779942
 C         1.549997        -0.131253        -0.280138
 C         2.523868         0.874082        -1.063696
 C         3.596289         0.951200         0.024590
 C         2.763200         0.832269         1.341785
 O         1.372384         0.622006         0.972318
 C         3.554686        -0.318491         0.903190
 O         4.656977        -0.624360         1.672779
 C         2.485480        -1.290291         0.170721
 H        -0.015390        -0.032172        -1.813452
 H        -0.055631        -1.403452        -0.690834
 H        -0.427647         0.194201        -0.052623
 H         2.863996         0.492073        -2.040270
 H         2.056886         1.761847        -1.234969
 H         4.368021         1.660414        -0.025112
 H         3.041244         1.332079         2.259255
 H         4.501076        -1.357402         2.245072
 H         2.952663        -1.842881        -0.646119
 H         2.088286        -2.064564         0.808193
