19
Iteration:  1414
 C         0.187116        -0.548666        -0.714645
 C         1.465348        -0.014350        -0.146352
 C         2.487463         0.690770        -1.116444
 C         3.616821         0.996287         0.015062
 C         2.787490         0.902161         1.360352
 O         1.364472         0.819076         1.002723
 C         3.550724        -0.288218         0.906558
 O         4.741228        -0.788287         1.386555
 C         2.446378        -1.164924         0.359533
 H        -0.796009        -0.565748        -0.125100
 H        -0.093026         0.029875        -1.663990
 H         0.451288        -1.512308        -1.150629
 H         2.759784         0.091408        -1.906143
 H         2.092681         1.655357        -1.587534
 H         4.591110         1.600401        -0.059743
 H         3.071198         1.532558         2.176262
 H         4.527940        -1.275181         2.259989
 H         2.707231        -1.874476        -0.442780
 H         2.040906        -1.799188         1.228030
