19
Iteration:  4393
 C         0.289090        -0.513268        -0.874746
 C         1.552393        -0.064774        -0.211180
 C         2.512932         0.881237        -1.036865
 C         3.522499         1.008274         0.157608
 C         2.640899         0.935482         1.369603
 O         1.374513         0.681990         1.004195
 C         3.536936        -0.250785         0.988947
 O         4.666589        -0.899119         1.381647
 C         2.476293        -1.193358         0.290161
 H         0.742710        -0.916586        -1.771676
 H        -0.156618        -1.298170        -0.313730
 H        -0.495717         0.263887        -1.067098
 H         2.985683         0.274883        -1.866942
 H         2.094561         1.735400        -1.389511
 H         4.547924         1.475526         0.059572
 H         2.782760         1.538626         2.240602
 H         5.181632        -0.438808         2.083216
 H         2.823078        -1.805195        -0.553772
 H         1.995201        -1.749274         1.130283
