19
Iteration:  3870charge 0 multiplicity 1
 C         0.224736        -0.492550        -0.859908
 C         1.554609        -0.090515        -0.205131
 C         2.459940         0.941479        -0.943931
 C         3.514179         1.113644         0.173089
 C         2.735102         0.802604         1.401607
 O         1.295305         0.649829         1.063553
 C         3.538983        -0.295804         0.821424
 O         4.703310        -0.844311         1.516879
 C         2.649186        -1.201478         0.007920
 H        -0.302718         0.060198        -1.648452
 H         0.292198        -1.495674        -1.314932
 H        -0.375735        -0.627915         0.075209
 H         2.881157         0.569049        -1.847136
 H         1.947410         1.959897        -1.088803
 H         4.439651         1.801145         0.241527
 H         2.979872         1.118343         2.386639
 H         4.445878        -0.885553         2.444443
 H         2.996842        -1.500279        -0.997312
 H         2.134958        -1.975412         0.648282
