19
Iteration:  2675
 C         0.122098        -0.381255        -0.961379
 C         1.524010        -0.068359        -0.194834
 C         2.544578         0.808983        -1.085782
 C         3.495118         1.031063         0.125105
 C         2.719527         0.855211         1.349339
 O         1.340288         0.566640         1.033170
 C         3.586929        -0.333792         0.934719
 O         4.794785        -0.698215         1.585850
 C         2.497597        -1.251016         0.224426
 H        -0.465975         0.600794        -0.990660
 H         0.350201        -0.776624        -1.937133
 H        -0.456220        -1.062922        -0.266917
 H         3.031038         0.170691        -1.883765
 H         2.058047         1.712079        -1.647906
 H         4.472417         1.674743        -0.051859
 H         2.962729         1.331657         2.280057
 H         4.693697        -0.594285         2.533318
 H         2.923305        -1.785368        -0.658025
 H         1.931099        -1.856731         0.951254
