19
Iteration:  4796
 C         0.254284        -0.463659        -0.851973
 C         1.547801        -0.094751        -0.246682
 C         2.637187         0.845017        -0.984325
 C         3.542536         1.023476         0.195950
 C         2.607263         0.871652         1.524929
 O         1.239042         0.707341         1.034735
 C         3.564032        -0.224582         0.863050
 O         4.751607        -0.826121         1.275872
 C         2.521884        -1.181472         0.278810
 H        -0.501971        -0.416568        -0.027188
 H        -0.081818         0.055046        -1.757713
 H         0.294114        -1.471387        -1.187427
 H         3.169831         0.162158        -1.733747
 H         2.348320         1.734715        -1.595191
 H         4.421396         1.575185         0.125080
 H         2.633060         1.442259         2.456682
 H         4.344585        -1.586780         1.764967
 H         2.827438        -1.841712        -0.556651
 H         2.131851        -1.810493         1.109690
