19
Iteration:  1279charge 0 multiplicity 1
 C         0.182141        -0.550359        -0.703468
 C         1.540888        -0.083078        -0.135276
 C         2.487189         0.752903        -1.083290
 C         3.581483         1.003775         0.005626
 C         2.814512         0.962647         1.327210
 O         1.426481         0.816105         0.971320
 C         3.511347        -0.290786         0.798255
 O         4.594339        -0.859560         1.530231
 C         2.467996        -1.209416         0.369767
 H        -0.105645        -1.295322        -0.003533
 H        -0.626509         0.240890        -0.772067
 H         0.402431        -0.955170        -1.766755
 H         2.928989         0.068151        -1.934008
 H         2.082385         1.601238        -1.529569
 H         4.589040         1.563538        -0.137552
 H         3.049160         1.544877         2.212817
 H         5.317426        -0.319585         1.137692
 H         2.705014        -1.966064        -0.440407
 H         1.831263        -1.571805         1.195340
