19
Iteration:  4585charge 0 multiplicity 1
 C         0.132054        -0.368748        -0.722187
 C         1.625482        -0.107317        -0.339132
 C         2.626748         0.796335        -1.065569
 C         3.522362         1.001922         0.120338
 C         2.694141         0.932601         1.336770
 O         1.338392         0.589691         1.006995
 C         3.542724        -0.315219         0.870169
 O         4.670348        -0.725470         1.594416
 C         2.562260        -1.216537         0.176353
 H        -0.218596        -0.595918        -1.741439
 H        -0.344114        -1.183990        -0.121243
 H        -0.352636         0.543477        -0.215990
 H         3.136526         0.402955        -1.916794
 H         2.162152         1.693967        -1.674700
 H         4.276124         1.668967        -0.042447
 H         2.809436         1.540124         2.204212
 H         4.433173        -1.540409         2.148557
 H         3.125241        -1.809985        -0.598158
 H         1.905502        -1.979641         0.742881
