19
Iteration:   910
 C         0.072015        -0.474674        -0.693106
 C         1.529537        -0.154151        -0.166940
 C         2.503230         0.721629        -1.156715
 C         3.516703         1.056713        -0.074887
 C         2.908448         0.972785         1.230840
 O         1.443927         0.780394         0.954996
 C         3.588511        -0.319227         0.836110
 O         4.685972        -0.750497         1.605875
 C         2.449356        -1.279337         0.407364
 H        -0.375618        -1.381933        -0.294519
 H        -0.439918         0.465324        -0.381300
 H         0.122579        -0.501305        -1.889251
 H         2.947692         0.257470        -1.954817
 H         1.995745         1.749284        -1.415450
 H         4.380924         1.759333        -0.093327
 H         2.949732         1.473985         2.174719
 H         4.293887        -1.544579         2.116917
 H         2.814716        -2.162286        -0.223201
 H         1.963928        -1.630710         1.317980
