19
Iteration:  1263
 C         0.234358        -0.478416        -0.724541
 C         1.498248        -0.065395        -0.164388
 C         2.566876         0.625996        -1.082354
 C         3.584442         0.901485        -0.067399
 C         2.735543         0.934235         1.353530
 O         1.385928         0.815796         1.086698
 C         3.552133        -0.223363         0.913008
 O         4.600962        -0.758266         1.488091
 C         2.431122        -1.192566         0.295539
 H        -0.443842        -1.063253        -0.008356
 H        -0.220710         0.436166        -1.056237
 H         0.325783        -1.092421        -1.573378
 H         2.863628        -0.066607        -1.813709
 H         1.985372         1.576221        -1.535233
 H         4.407341         1.476813        -0.283095
 H         2.994966         1.426643         2.310724
 H         5.431450        -0.757227         0.884358
 H         2.973814        -1.667915        -0.492850
 H         2.189782        -1.963149         1.027664
