19
Iteration:   427charge 0 multiplicity 1
 C         0.144071        -0.503678        -0.713225
 C         1.498249        -0.105334        -0.160109
 C         2.506033         0.698220        -1.085373
 C         3.623026         1.000144        -0.084724
 C         2.826670         1.049625         1.193648
 O         1.418017         0.752679         0.946405
 C         3.566025        -0.254240         0.922295
 O         4.683991        -0.854163         1.516745
 C         2.414925        -1.173184         0.457915
 H        -0.546346        -0.655096         0.123774
 H        -0.289532         0.402397        -1.320746
 H         0.043997        -1.295410        -1.374197
 H         2.882609         0.072054        -1.837356
 H         2.061816         1.637703        -1.449178
 H         4.486637         1.478932        -0.306776
 H         2.980484         1.670635         2.078396
 H         4.407641        -1.275177         2.325028
 H         2.902598        -1.796148        -0.313938
 H         2.033063        -1.907861         1.223207
