19
Iteration:  3678charge 0 multiplicity 1
 C         0.304742        -0.483989        -1.024559
 C         1.520798        -0.095547        -0.182220
 C         2.440862         0.941700        -0.876430
 C         3.525394         1.034695         0.173674
 C         2.745905         0.879969         1.440023
 O         1.325044         0.643832         0.987559
 C         3.521663        -0.337747         0.863748
 O         4.756547        -0.798112         1.366010
 C         2.484907        -1.213332         0.310508
 H         0.198842         0.358414        -1.713221
 H         0.543391        -1.494407        -1.598715
 H        -0.574193        -0.693995        -0.241471
 H         2.816609         0.586343        -1.924911
 H         2.008383         1.866232        -1.107320
 H         4.301106         1.766237         0.066196
 H         2.821756         1.276282         2.503362
 H         4.770454        -0.976414         2.289726
 H         2.824779        -1.841452        -0.520901
 H         1.989735        -1.846344         1.057675
