19
Iteration:  1679charge 0 multiplicity 1
 C         0.263868        -0.549388        -0.772157
 C         1.488359        -0.022396        -0.182044
 C         2.490735         0.748784        -1.007892
 C         3.528611         0.963682         0.052171
 C         2.784433         0.927048         1.305423
 O         1.319892         0.790246         1.021277
 C         3.565233        -0.251525         0.950140
 O         4.760278        -0.881691         1.472787
 C         2.405217        -1.124481         0.318907
 H        -0.538415        -0.582919        -0.057983
 H        -0.091517         0.032632        -1.633583
 H         0.277317        -1.629255        -1.196307
 H         2.825791         0.092398        -1.791632
 H         2.232280         1.824504        -1.478008
 H         4.393124         1.674011        -0.208578
 H         2.955794         1.518182         2.197411
 H         5.359805        -1.064245         0.665007
 H         2.657410        -1.802933        -0.553817
 H         1.864111        -1.653430         1.116752
