19
Iteration:   577
 C         0.165848        -0.655465        -0.651296
 C         1.519486        -0.107946        -0.253705
 C         2.549544         0.792371        -1.056119
 C         3.637007         0.859411        -0.003771
 C         2.835786         1.029100         1.259002
 O         1.415490         0.903061         0.937969
 C         3.443554        -0.315564         0.918126
 O         4.687508        -0.792354         1.481704
 C         2.423018        -1.157420         0.364853
 H        -0.471127        -0.765276         0.220488
 H        -0.402629        -0.048351        -1.472317
 H         0.243756        -1.606623        -1.134598
 H         2.760732         0.447967        -2.183159
 H         2.091593         1.764520        -1.048222
 H         4.570762         1.368613        -0.107899
 H         3.151912         1.717581         2.023967
 H         4.446045        -1.158759         2.322293
 H         2.766992        -1.781845        -0.444282
 H         1.845886        -1.791607         1.106016
