19
Iteration:   336
 C         0.218522        -0.521557        -0.663355
 C         1.512406        -0.100984        -0.120336
 C         2.467564         0.645772        -1.122831
 C         3.545057         1.022790        -0.009214
 C         2.826898         1.027684         1.276219
 O         1.478817         0.878708         0.966085
 C         3.525385        -0.238002         0.803477
 O         4.588165        -0.878225         1.492656
 C         2.502587        -1.197310         0.387236
 H        -0.535507        -0.723266         0.116059
 H        -0.062508         0.113427        -1.562717
 H         0.513289        -1.460642        -1.245245
 H         2.893670        -0.038906        -1.971046
 H         1.978770         1.494038        -1.502424
 H         4.503143         1.648727        -0.221751
 H         2.914624         1.575176         2.163204
 H         4.218247        -1.270715         2.277819
 H         2.765122        -1.955265        -0.390228
 H         2.098689        -1.797321         1.307010
