19
Iteration:  2786charge 0 multiplicity 1
 C         0.277571        -0.512604        -0.894206
 C         1.586658        -0.124755        -0.257097
 C         2.463829         0.866861        -1.024543
 C         3.528512         1.022508         0.100148
 C         2.706039         0.871390         1.346345
 O         1.358407         0.714883         0.969505
 C         3.544799        -0.263265         0.951361
 O         4.724336        -0.842149         1.531486
 C         2.491014        -1.174363         0.276472
 H        -0.388653         0.245778        -1.108334
 H         0.357102        -0.996407        -1.865203
 H        -0.429552        -1.093567        -0.209264
 H         2.794424         0.528374        -1.960019
 H         1.837219         1.865306        -1.132201
 H         4.379943         1.612587         0.061273
 H         2.894187         1.427707         2.292857
 H         4.618447        -0.878481         2.527812
 H         3.067505        -1.749912        -0.490281
 H         1.906689        -1.912914         0.811561
