19
Iteration:  3827charge 0 multiplicity 1
 C         0.315109        -0.514287        -0.969354
 C         1.552362        -0.054034        -0.314669
 C         2.539827         0.974719        -0.932678
 C         3.504547         1.085942         0.211107
 C         2.622328         0.893521         1.388025
 O         1.284846         0.573163         1.115689
 C         3.538042        -0.314566         0.950778
 O         4.767237        -0.876631         1.311550
 C         2.478677        -1.189100         0.252983
 H        -0.121366         0.425163        -1.372281
 H         0.606923        -1.199976        -1.803878
 H        -0.337940        -0.951372        -0.133844
 H         2.950113         0.596160        -1.861307
 H         1.753584         1.895334        -1.064288
 H         4.467428         1.683923         0.132411
 H         2.733191         1.454756         2.321677
 H         5.059708        -0.792804         2.192337
 H         2.983676        -1.842571        -0.495843
 H         1.995050        -1.763803         1.138754
