19
Iteration:  1395
 C         0.221023        -0.441955        -0.768440
 C         1.562412        -0.206470        -0.200969
 C         2.449992         0.772895        -0.984682
 C         3.494489         0.859150        -0.002587
 C         2.757370         1.046903         1.281725
 O         1.440588         0.833819         0.965141
 C         3.492795        -0.348263         0.956949
 O         4.771866        -0.692103         1.412051
 C         2.446989        -1.291568         0.391849
 H        -0.322865        -0.486203         0.200200
 H        -0.252181         0.288197        -1.331602
 H         0.110313        -1.419266        -1.401983
 H         2.849264         0.415543        -1.944672
 H         1.869931         1.771981        -1.163928
 H         4.556732         1.307787        -0.215453
 H         3.073250         1.659381         2.128484
 H         4.554841        -1.516912         1.952873
 H         2.802329        -1.864128        -0.495480
 H         1.802435        -1.861362         1.075215
