19
Iteration:  2243charge 0 multiplicity 1
 C         0.263879        -0.538666        -0.945945
 C         1.554491        -0.054811        -0.226149
 C         2.519982         0.878943        -1.002464
 C         3.493034         1.045763         0.109545
 C         2.753339         0.901216         1.373435
 O         1.378233         0.602200         1.040707
 C         3.562882        -0.255682         0.894453
 O         4.701767        -0.735708         1.487909
 C         2.424613        -1.173167         0.349267
 H         0.094327        -0.195990        -1.983576
 H         0.104124        -1.681684        -0.913753
 H        -0.681039        -0.171873        -0.301775
 H         3.009261         0.323858        -1.885157
 H         2.069310         1.758098        -1.423114
 H         4.433480         1.660537         0.066460
 H         2.905195         1.400330         2.340811
 H         4.815875        -1.699391         1.120780
 H         2.658057        -1.954757        -0.350950
 H         1.984499        -1.695567         1.180554
