19
Iteration:  1320
 C         0.167654        -0.489294        -0.659090
 C         1.534917        -0.062596        -0.203719
 C         2.413967         0.763217        -1.076297
 C         3.596424         0.892251        -0.054927
 C         2.818094         0.992948         1.255431
 O         1.411553         0.761488         0.974082
 C         3.562542        -0.284214         0.882998
 O         4.592177        -0.862666         1.545954
 C         2.541808        -1.168608         0.325695
 H        -0.132779        -1.442706        -0.270494
 H        -0.558306         0.182400        -0.348310
 H         0.112281        -0.508298        -1.822002
 H         2.591742         0.244254        -2.107690
 H         1.887635         1.699655        -1.298844
 H         4.668814         1.318406        -0.165376
 H         2.947637         1.755516         1.994681
 H         5.056340        -0.439071         2.237905
 H         3.049809        -1.877995        -0.391308
 H         2.227643        -1.796524         1.135631
