19
Iteration:   115charge 0 multiplicity 1
 C         0.018495        -0.335434        -0.771349
 C         1.450526        -0.047049        -0.233715
 C         2.538854         0.687391        -1.153492
 C         3.615212         0.775290        -0.073193
 C         2.799189         0.888167         1.273232
 O         1.386494         0.655316         1.051007
 C         3.573563        -0.360515         0.903199
 O         4.854888        -0.556542         1.590303
 C         2.423493        -1.229150         0.379673
 H        -0.796859        -0.506560         0.017486
 H        -0.321730         0.488634        -1.426356
 H         0.038857        -1.329091        -1.387990
 H         2.741737         0.110076        -2.078358
 H         2.198960         1.723364        -1.428745
 H         4.585556         1.460066        -0.053249
 H         3.007551         1.535711         2.059252
 H         4.762437        -0.681119         2.520529
 H         2.636628        -1.871188        -0.557413
 H         1.800092        -1.810324         1.110610
