19
Iteration:  2841charge 0 multiplicity 1
 C         0.263563        -0.290545        -0.797750
 C         1.605596        -0.161684        -0.263163
 C         2.514611         0.780482        -1.079076
 C         3.468772         1.005867         0.122813
 C         2.728509         0.826639         1.423747
 O         1.394960         0.635985         0.921780
 C         3.524376        -0.299630         0.871691
 O         4.643195        -0.601370         1.566997
 C         2.516897        -1.358681         0.245156
 H        -0.365232         0.386572        -0.361440
 H         0.185690        -0.108366        -1.910305
 H        -0.103524        -1.378191        -0.684710
 H         3.030239         0.259622        -1.813057
 H         1.941595         1.727582        -1.549671
 H         4.528048         1.492759        -0.068250
 H         2.816192         1.241687         2.434558
 H         4.447444        -1.247863         2.236265
 H         3.070326        -1.966544        -0.541442
 H         1.909454        -1.743860         1.082978
