19
Iteration:  1379
 C         0.106454        -0.387593        -0.698279
 C         1.559234        -0.164590        -0.229474
 C         2.498725         0.759324        -1.093194
 C         3.638341         0.872767        -0.035193
 C         2.797889         0.959990         1.254305
 O         1.361540         0.730713         0.983005
 C         3.499672        -0.302383         0.946185
 O         4.761461        -0.651771         1.469245
 C         2.439342        -1.304916         0.384217
 H        -0.587264        -0.826127         0.070953
 H        -0.127857         0.728964        -1.026172
 H         0.082819        -1.003715        -1.549647
 H         2.656152         0.393125        -2.135982
 H         1.932969         1.667559        -1.049599
 H         4.539069         1.371440        -0.079341
 H         2.854330         1.706073         2.057989
 H         4.814477        -1.457994         2.090968
 H         3.007925        -1.966736        -0.292047
 H         1.925903        -1.820501         1.256247
