19
Iteration:  3891charge 0 multiplicity 1
 C         0.196298        -0.402057        -0.786629
 C         1.542339        -0.066536        -0.245725
 C         2.440204         0.978655        -1.000037
 C         3.493374         1.030990         0.085520
 C         2.695971         0.799528         1.361188
 O         1.422993         0.445939         1.069898
 C         3.568167        -0.262598         0.851840
 O         4.684667        -0.761350         1.608124
 C         2.633948        -1.186202         0.038595
 H        -0.171843         0.342893        -1.488446
 H         0.060609        -1.134959        -1.564148
 H        -0.573247        -0.604469        -0.047081
 H         2.887078         0.818012        -1.903996
 H         2.000898         1.972353        -1.050672
 H         4.445991         1.666755         0.167821
 H         2.731120         1.427232         2.222730
 H         4.301463        -1.334151         2.270201
 H         3.060613        -1.578463        -0.885726
 H         2.234206        -1.995057         0.705929
