19
Iteration:  1188charge 0 multiplicity 1
 C         0.136048        -0.470048        -0.714457
 C         1.497154        -0.060859        -0.186244
 C         2.462567         0.719385        -1.084250
 C         3.561885         1.027413        -0.080278
 C         2.848452         0.957002         1.293225
 O         1.459901         0.754425         1.041171
 C         3.546581        -0.330016         0.910947
 O         4.647784        -0.756862         1.687586
 C         2.437967        -1.238532         0.198758
 H        -0.550916        -0.674658         0.174657
 H        -0.366458         0.043568        -1.482039
 H         0.326203        -1.519783        -1.118064
 H         2.707059         0.125348        -1.985556
 H         2.076733         1.667929        -1.423497
 H         4.487367         1.432468        -0.237250
 H         3.165538         1.631021         2.129105
 H         5.344891        -1.060724         1.132425
 H         2.761921        -1.587389        -0.773930
 H         1.973227        -2.020444         0.812804
