19
Iteration:  4115charge 0 multiplicity 1
 C         0.417112        -0.583586        -1.013834
 C         1.533473        -0.017049        -0.230674
 C         2.408079         0.985517        -0.822698
 C         3.445220         1.089522         0.280446
 C         2.703358         0.832504         1.522996
 O         1.335529         0.648585         1.068266
 C         3.501464        -0.324436         0.823937
 O         4.786370        -0.817962         1.307873
 C         2.516518        -1.152379         0.158910
 H        -0.019790         0.200407        -1.735949
 H         0.566150        -1.648577        -1.408999
 H        -0.454068        -0.647338        -0.320727
 H         2.855258         0.450737        -1.710464
 H         1.837162         1.841227        -1.249191
 H         4.338143         1.874243         0.238688
 H         2.903151         1.182889         2.535196
 H         4.576249        -1.607271         1.901652
 H         2.690134        -1.705447        -0.818193
 H         1.995610        -1.943680         0.849311
