19
Iteration:  1504
 C         0.165386        -0.395403        -0.718295
 C         1.526836        -0.085445        -0.208454
 C         2.491198         0.655933        -1.141333
 C         3.560768         0.985223        -0.037721
 C         2.841326         0.874922         1.330893
 O         1.464222         0.655191         1.076880
 C         3.506750        -0.295450         0.820333
 O         4.688998        -0.671638         1.527763
 C         2.413366        -1.181896         0.339076
 H        -0.393853        -1.050813        -0.030254
 H        -0.371093         0.527900        -0.775620
 H         0.310665        -0.890016        -1.815332
 H         2.872760        -0.007287        -1.844934
 H         2.242314         1.598316        -1.721024
 H         4.349991         1.560818        -0.354791
 H         3.149553         1.326109         2.306254
 H         4.476624        -0.574387         2.500498
 H         2.585508        -1.812241        -0.563990
 H         1.801864        -1.865079         0.940309
