19
Iteration:  2824charge 0 multiplicity 1
 C         0.158811        -0.318117        -0.855844
 C         1.573757        -0.140065        -0.259231
 C         2.599777         0.709076        -1.014802
 C         3.567149         1.012598         0.050474
 C         2.695711         0.804385         1.365731
 O         1.380823         0.593483         1.036292
 C         3.498334        -0.307816         0.868858
 O         4.663956        -0.562182         1.585122
 C         2.522870        -1.276499         0.211247
 H        -0.255069         0.660053        -0.380589
 H         0.261668        -0.141096        -1.975901
 H        -0.277611        -1.267819        -0.690292
 H         3.006083         0.124560        -1.944922
 H         2.038407         1.520515        -1.390743
 H         4.485960         1.628662         0.112343
 H         2.866859         1.247498         2.322575
 H         4.394660        -1.017072         2.354684
 H         2.843375        -1.780424        -0.694752
 H         2.061268        -2.033874         0.877770
