19
Iteration:  4123charge 0 multiplicity 1
 C         0.321612        -0.546951        -0.956817
 C         1.576888        -0.031787        -0.244013
 C         2.428854         1.011346        -0.892519
 C         3.476069         1.089482         0.280082
 C         2.644016         0.750765         1.540523
 O         1.333501         0.638813         1.050117
 C         3.565354        -0.269594         0.818262
 O         4.772645        -0.801691         1.329619
 C         2.518007        -1.189699         0.183598
 H         0.038862         0.144627        -1.768884
 H         0.507414        -1.527905        -1.446057
 H        -0.432090        -0.726291        -0.090814
 H         3.025687         0.745019        -1.685516
 H         1.794500         1.934045        -1.227166
 H         4.461059         1.560286         0.033364
 H         2.556768         1.263230         2.456459
 H         4.529893        -1.643785         1.775423
 H         2.917553        -1.661216        -0.755734
 H         2.071967        -1.997004         0.813561
