19
Iteration:   266
 C         0.040963        -0.302817        -0.734846
 C         1.528523        -0.206952        -0.162133
 C         2.591786         0.558050        -1.117360
 C         3.613465         0.952682        -0.025263
 C         2.792438         1.024618         1.206004
 O         1.420700         0.731317         1.016482
 C         3.571392        -0.254665         0.847539
 O         4.668465        -0.682849         1.536511
 C         2.456979        -1.294537         0.396901
 H        -0.474141        -1.229006        -0.421710
 H        -0.528464         0.542691        -0.403891
 H         0.112653        -0.144070        -1.813967
 H         2.999970        -0.122496        -1.839844
 H         1.993494         1.419072        -1.648015
 H         4.552551         1.455712        -0.293888
 H         2.999170         1.475496         2.228999
 H         4.466123        -0.796111         2.447934
 H         2.793201        -2.042504        -0.335434
 H         2.055078        -1.804656         1.226870
