19
Iteration:  1303charge 0 multiplicity 1
 C         0.140685        -0.574232        -0.683682
 C         1.563034        -0.117634        -0.265515
 C         2.458671         0.872006        -1.103221
 C         3.617420         0.917923        -0.138567
 C         2.762499         0.961878         1.267223
 O         1.383141         0.808783         0.956285
 C         3.561624        -0.249285         0.925836
 O         4.724867        -0.972730         1.595579
 C         2.450912        -1.179516         0.411275
 H        -0.050372        -1.499018        -0.103588
 H        -0.620095         0.270701        -0.349370
 H         0.061893        -0.663716        -1.744763
 H         2.688191         0.576275        -2.116215
 H         2.081322         1.930019        -1.121626
 H         4.239645         1.747137        -0.314088
 H         3.018803         1.639238         2.120750
 H         5.268456        -0.262808         1.899543
 H         2.695072        -1.907282        -0.379507
 H         1.772632        -1.548832         1.243974
