19
Iteration:  2576
 C         0.261220        -0.420240        -0.859138
 C         1.642937        -0.149011        -0.255754
 C         2.470953         0.798714        -1.018724
 C         3.450468         1.028966         0.102555
 C         2.726711         0.935449         1.355549
 O         1.389916         0.630085         0.999851
 C         3.471096        -0.325898         0.958655
 O         4.669291        -0.758263         1.567767
 C         2.540823        -1.283791         0.138100
 H        -0.402428         0.518825        -0.500545
 H         0.292537        -0.393117        -1.913379
 H        -0.211281        -1.247390        -0.311660
 H         2.853109         0.438393        -2.034780
 H         1.920864         1.757329        -1.182285
 H         4.464676         1.524286         0.304168
 H         2.782357         1.550067         2.267991
 H         4.945613        -0.090331         2.160916
 H         3.106714        -1.739271        -0.678608
 H         2.066443        -2.045357         0.679162
