19
Iteration:  1055
 C         0.082025        -0.451227        -0.652661
 C         1.515910        -0.102122        -0.220309
 C         2.543021         0.739756        -1.094036
 C         3.587985         0.956602        -0.035549
 C         2.782084         0.920059         1.236718
 O         1.386833         0.727288         0.976514
 C         3.583867        -0.323580         0.794578
 O         4.717356        -0.701857         1.665634
 C         2.448665        -1.214690         0.296604
 H        -0.405546        -1.025036         0.195408
 H        -0.432121         0.541675        -0.907561
 H         0.143240        -1.138786        -1.435599
 H         3.080714         0.323243        -1.888009
 H         2.076498         1.689536        -1.417196
 H         4.465298         1.744960        -0.147963
 H         2.884543         1.603853         2.060335
 H         4.987201        -1.546436         1.331289
 H         2.668308        -2.111780        -0.243269
 H         1.882544        -1.538401         1.203238
