19
Iteration:  1424charge 0 multiplicity 1
 C         0.151891        -0.582230        -0.770274
 C         1.458633        -0.048475        -0.104392
 C         2.604511         0.730525        -1.112735
 C         3.604682         1.016563        -0.028892
 C         2.753096         0.916814         1.291771
 O         1.342922         0.785336         1.117652
 C         3.589362        -0.241284         0.800379
 O         4.726628        -0.862747         1.420969
 C         2.444249        -1.091480         0.344341
 H        -0.575965        -0.602002         0.135037
 H        -0.217055        -0.059739        -1.750557
 H         0.276630        -1.623809        -0.902680
 H         2.955751        -0.089219        -1.716703
 H         2.216661         1.545264        -1.772203
 H         4.502678         1.701588         0.057881
 H         3.096142         1.429241         2.154972
 H         4.455865        -0.991908         2.395076
 H         2.563978        -1.674230        -0.557810
 H         1.876679        -1.552790         1.220685
