19
Iteration:  3356
 C         0.222413        -0.392742        -0.866260
 C         1.598369        -0.150771        -0.241133
 C         2.507018         0.867498        -1.008290
 C         3.491515         1.077299         0.136492
 C         2.746869         0.771780         1.317714
 O         1.377422         0.615262         1.014188
 C         3.512883        -0.305777         0.834236
 O         4.636218        -0.688848         1.669666
 C         2.568421        -1.261514         0.193825
 H        -0.450610         0.506011        -0.727637
 H         0.164539        -0.425489        -1.983047
 H        -0.366830        -1.215864        -0.519120
 H         3.000659         0.533195        -1.862435
 H         1.953115         1.864716        -1.169277
 H         4.269707         1.752459         0.089286
 H         2.980427         1.235100         2.251323
 H         4.965134        -1.475967         1.240907
 H         2.921031        -1.813127        -0.650246
 H         2.112358        -1.811373         0.927524
