19
Iteration:  1451
 C         0.164203        -0.465505        -0.663540
 C         1.586245        -0.140568        -0.197416
 C         2.445879         0.792324        -1.101970
 C         3.547821         1.034189        -0.022287
 C         2.807979         0.974104         1.300311
 O         1.459117         0.725869         0.979693
 C         3.503958        -0.239187         0.904425
 O         4.621675        -0.880670         1.479392
 C         2.525469        -1.218536         0.298717
 H        -0.458452        -0.437687         0.182344
 H        -0.173039         0.065795        -1.504794
 H         0.219291        -1.605029        -0.835372
 H         2.850540         0.221206        -1.978863
 H         1.860105         1.652925        -1.428117
 H         4.453457         1.559306        -0.093108
 H         3.020167         1.661528         2.148893
 H         4.732766        -0.624834         2.434182
 H         2.885019        -1.855156        -0.542909
 H         1.879426        -1.760814         0.975700
