19
Iteration:  1628charge 0 multiplicity 1
 C         0.124951        -0.325906        -0.645131
 C         1.565023        -0.122665        -0.210786
 C         2.413437         0.780505        -1.130672
 C         3.559024         0.891622        -0.065169
 C         2.747910         0.938714         1.228733
 O         1.387037         0.661126         0.957352
 C         3.632087        -0.265974         0.935430
 O         4.744300        -0.832418         1.662255
 C         2.519553        -1.262151         0.246561
 H        -0.511681        -0.744078         0.154702
 H        -0.478897         0.642883        -0.851753
 H         0.067874        -0.915249        -1.545607
 H         2.478537         0.219916        -2.139755
 H         1.840788         1.614108        -1.245937
 H         4.542059         1.528343        -0.108885
 H         2.743081         1.719773         2.003037
 H         5.113809        -0.086601         2.223952
 H         2.914731        -1.688223        -0.684517
 H         1.989862        -1.928373         0.902592
