19
Iteration:   541
 C         0.100655        -0.285388        -0.798566
 C         1.501267        -0.165965        -0.154523
 C         2.511594         0.546406        -1.161151
 C         3.524850         1.000747        -0.070229
 C         2.805740         0.922164         1.235491
 O         1.403449         0.787083         1.046875
 C         3.566794        -0.332333         0.897738
 O         4.707206        -0.683696         1.533335
 C         2.488586        -1.291217         0.445347
 H        -0.609652        -0.807083        -0.160931
 H        -0.180973         0.723708        -0.923203
 H         0.201342        -0.870995        -1.803495
 H         3.069588        -0.059630        -1.903194
 H         2.070912         1.390002        -1.666354
 H         4.398916         1.613557        -0.232680
 H         3.182026         1.459820         2.149516
 H         4.577835        -0.778154         2.473540
 H         2.893357        -1.956071        -0.328051
 H         2.169831        -1.856067         1.309306
