19
Iteration:  4572
 C         0.171053        -0.378945        -0.724205
 C         1.559197        -0.116612        -0.301967
 C         2.612253         0.761014        -1.059015
 C         3.578314         0.976505         0.100054
 C         2.653732         0.830838         1.364740
 O         1.333846         0.666393         0.993518
 C         3.538295        -0.279255         0.888793
 O         4.690154        -0.706041         1.538977
 C         2.523293        -1.220255         0.149049
 H         0.119008        -0.253457        -1.798809
 H         0.032104        -1.450574        -0.411552
 H        -0.548177         0.352812        -0.335066
 H         3.022043         0.178444        -1.797404
 H         2.159197         1.809734        -1.258348
 H         4.459022         1.635878         0.275256
 H         2.923096         1.526826         2.117031
 H         4.363730        -1.107672         2.329095
 H         2.862966        -1.856469        -0.739079
 H         2.127362        -1.837501         1.012582
