19
Iteration:  1794charge 0 multiplicity 1
 C         0.172305        -0.462385        -0.750575
 C         1.526622        -0.111652        -0.197447
 C         2.484796         0.844012        -1.116309
 C         3.530227         1.078480        -0.031221
 C         2.757755         0.923988         1.270053
 O         1.386072         0.679519         1.045278
 C         3.607644        -0.299875         0.850614
 O         4.630895        -0.877575         1.619280
 C         2.498972        -1.214391         0.342222
 H        -0.000800        -1.552964        -0.416512
 H        -0.581338         0.227901        -0.390383
 H         0.301310        -0.528368        -1.838889
 H         2.881463         0.392052        -2.131179
 H         1.972433         1.700908        -1.387149
 H         4.382217         1.835617        -0.161941
 H         3.005770         1.453066         2.202996
 H         5.509709        -0.650817         1.154682
 H         2.763733        -1.917156        -0.410235
 H         2.086417        -1.650863         1.273182
