19
Iteration:  2785charge 0 multiplicity 1
 C         0.282591        -0.517555        -0.896430
 C         1.592016        -0.135752        -0.250225
 C         2.462027         0.871529        -1.024822
 C         3.531648         1.028787         0.106478
 C         2.710462         0.873648         1.347864
 O         1.358205         0.718694         0.968277
 C         3.542932        -0.265551         0.946371
 O         4.711167        -0.842152         1.521949
 C         2.486956        -1.167486         0.275868
 H        -0.369813         0.258891        -1.119854
 H         0.364673        -1.022802        -1.809928
 H        -0.397379        -1.093874        -0.201329
 H         2.810978         0.553042        -1.956239
 H         1.858585         1.844785        -1.129054
 H         4.352913         1.603555         0.057890
 H         2.915429         1.417032         2.292390
 H         4.608763        -0.878409         2.535784
 H         3.075941        -1.777405        -0.475356
 H         1.907822        -1.938795         0.825843
