19
Iteration:  1376
 C         0.086325        -0.373087        -0.694109
 C         1.539927        -0.146732        -0.197335
 C         2.518692         0.757719        -1.097707
 C         3.614305         0.854367        -0.059485
 C         2.790597         0.950035         1.283303
 O         1.375999         0.709393         0.971506
 C         3.523583        -0.309803         0.912970
 O         4.762504        -0.651540         1.485621
 C         2.445832        -1.287401         0.387584
 H        -0.523453        -0.810801         0.039810
 H        -0.209398         0.643953        -0.962245
 H         0.097364        -0.950186        -1.663426
 H         2.693769         0.287936        -2.176240
 H         1.991983         1.673392        -1.154322
 H         4.508762         1.473824        -0.106302
 H         2.789103         1.662980         2.135741
 H         4.747691        -1.384979         2.119132
 H         3.080920        -1.908992        -0.255123
 H         1.918776        -1.709241         1.209637
