19
Iteration:  2458
 C         0.251537        -0.544346        -0.832797
 C         1.588169        -0.059742        -0.259006
 C         2.530388         0.894782        -1.000335
 C         3.489313         1.099214         0.080794
 C         2.725569         0.812283         1.414090
 O         1.396854         0.617616         0.976605
 C         3.513401        -0.295161         0.898639
 O         4.569215        -0.733753         1.598110
 C         2.574233        -1.156933         0.186478
 H        -0.259967         0.439256        -1.153182
 H         0.384094        -1.259895        -1.615190
 H        -0.283679        -0.924239         0.063802
 H         3.000176         0.447729        -1.816892
 H         1.898284         1.761577        -1.465561
 H         4.334723         1.684315         0.021900
 H         2.947158         1.217915         2.395629
 H         4.924921        -1.532336         1.074464
 H         3.015461        -1.855257        -0.597149
 H         2.044115        -1.873745         0.976656
