19
Iteration:  3039
 C         0.290919        -0.644951        -0.836293
 C         1.557250        -0.078960        -0.240914
 C         2.533517         0.867711        -0.974230
 C         3.563225         1.093806         0.166637
 C         2.757103         0.890731         1.390360
 O         1.380199         0.761556         1.019739
 C         3.496802        -0.284510         0.840193
 O         4.603084        -0.835443         1.469805
 C         2.489689        -1.153510         0.182437
 H        -0.368859         0.175036        -1.024323
 H         0.650838        -1.128605        -1.816546
 H        -0.251903        -1.384021        -0.321122
 H         2.994267         0.404061        -1.758305
 H         2.120684         1.838013        -1.352277
 H         4.357164         1.715743         0.104549
 H         2.840690         1.394616         2.378544
 H         4.372220        -1.198938         2.315728
 H         2.853261        -1.805625        -0.705433
 H         1.974280        -1.863279         0.935066
