19
Iteration:  1857
 C         0.161410        -0.465862        -0.779563
 C         1.562127        -0.160489        -0.218978
 C         2.508891         0.867163        -0.975881
 C         3.547780         0.995564         0.090460
 C         2.710228         0.900185         1.353849
 O         1.343761         0.683948         0.968843
 C         3.559204        -0.306266         0.867456
 O         4.802843        -0.776118         1.394844
 C         2.480222        -1.178751         0.293666
 H        -0.546044        -0.658061         0.062041
 H        -0.452234         0.317797        -1.274613
 H         0.194630        -1.232739        -1.460679
 H         2.946508         0.419012        -1.950728
 H         1.997637         1.810413        -1.079643
 H         4.439728         1.614204        -0.063037
 H         2.803518         1.585626         2.216943
 H         4.660002        -1.266875         2.287997
 H         2.743146        -1.995272        -0.391595
 H         2.053693        -1.694874         1.181771
