19
Iteration:  2376
 C         0.245668        -0.508670        -0.844423
 C         1.585822        -0.044959        -0.226208
 C         2.562778         0.826797        -1.012766
 C         3.546828         0.986698         0.128283
 C         2.675090         0.969894         1.345255
 O         1.318627         0.641003         1.004140
 C         3.556111        -0.250974         0.910061
 O         4.745738        -0.781917         1.449063
 C         2.427818        -1.222796         0.265916
 H        -0.649234         0.025651        -0.430754
 H         0.205264        -0.437986        -2.000044
 H         0.136240        -1.625404        -0.602211
 H         3.083751         0.224916        -1.834951
 H         1.986694         1.640915        -1.266921
 H         4.450530         1.677182         0.124123
 H         2.700236         1.657260         2.161257
 H         4.528897        -1.133079         2.384060
 H         2.954270        -1.700112        -0.556569
 H         1.912209        -1.900948         0.902802
