19
Iteration:  3649charge 0 multiplicity 1
 C         0.236305        -0.372236        -0.904367
 C         1.533818        -0.132965        -0.284128
 C         2.560477         0.846935        -0.985316
 C         3.508707         0.948142         0.165117
 C         2.642687         0.828585         1.422671
 O         1.346472         0.588552         1.064835
 C         3.515469        -0.304943         0.912457
 O         4.772637        -0.663991         1.468081
 C         2.539621        -1.201219         0.186472
 H        -0.009433         0.452244        -1.604407
 H        -0.055555        -1.323096        -1.332766
 H        -0.477970        -0.311317        -0.166910
 H         2.821761         0.354104        -1.954864
 H         2.133202         1.867036        -1.354709
 H         4.226520         1.888309         0.244289
 H         2.767927         1.350389         2.341515
 H         4.879636        -1.423464         2.018155
 H         2.945562        -1.777466        -0.703600
 H         1.959325        -1.975425         0.762848
