19
Iteration:  1668charge 0 multiplicity 1
 C         0.187170        -0.539077        -0.762380
 C         1.522298        -0.023352        -0.150061
 C         2.522766         0.743343        -1.099115
 C         3.567635         1.050007         0.038430
 C         2.767532         0.939722         1.399375
 O         1.395300         0.770872         1.035643
 C         3.542685        -0.354569         0.814572
 O         4.685386        -0.825725         1.495760
 C         2.377433        -1.195872         0.317983
 H        -0.533821        -0.482572         0.024528
 H        -0.113055         0.162786        -1.538727
 H         0.456870        -1.599235        -1.146600
 H         3.018652         0.060669        -1.752082
 H         2.040667         1.610754        -1.800218
 H         4.487873         1.744220         0.061222
 H         2.995967         1.439826         2.340040
 H         5.429512        -0.548939         0.926098
 H         2.643068        -1.903488        -0.527510
 H         1.965767        -1.803644         1.139877
