19
Iteration:  4822charge 0 multiplicity 1
 C         0.265043        -0.376913        -0.973907
 C         1.525331        -0.138999        -0.204793
 C         2.480806         0.851082        -0.948077
 C         3.532622         1.041767         0.116187
 C         2.731292         0.823224         1.415006
 O         1.387444         0.648720         1.019943
 C         3.519903        -0.335811         0.985584
 O         4.822616        -0.723652         1.362014
 C         2.385575        -1.242860         0.298135
 H        -0.500104        -0.414320        -0.213006
 H        -0.080278         0.355717        -1.702793
 H         0.249118        -1.364951        -1.483018
 H         2.822594         0.511948        -1.962869
 H         1.958035         1.704338        -1.257706
 H         4.425192         1.743185         0.197392
 H         2.734992         1.351508         2.389298
 H         4.665489        -1.150222         2.216674
 H         2.701632        -1.801032        -0.585440
 H         1.920654        -1.952417         0.959202
