19
Iteration:  4067
 C         0.259511        -0.366903        -0.897947
 C         1.559569        -0.104936        -0.286975
 C         2.455168         0.937260        -0.917705
 C         3.496088         1.127336         0.208315
 C         2.693344         0.771135         1.398634
 O         1.324959         0.506534         1.042579
 C         3.554960        -0.309171         0.906088
 O         4.760870        -0.773927         1.430008
 C         2.581816        -1.240481         0.117416
 H        -0.202604         0.569635        -1.200708
 H         0.413307        -1.058293        -1.724194
 H        -0.557754        -0.832435        -0.203891
 H         2.894574         0.743594        -1.855482
 H         1.765386         1.839272        -0.952399
 H         4.200113         1.863372         0.161233
 H         2.763192         1.251673         2.416925
 H         4.715479        -0.930291         2.351000
 H         3.046965        -1.835148        -0.686650
 H         1.925409        -1.869440         0.723546
