19
Iteration:  3235charge 0 multiplicity 1
 C         0.216319        -0.328573        -0.939353
 C         1.529071        -0.146373        -0.200545
 C         2.543874         0.857565        -0.957366
 C         3.510874         0.950770         0.097099
 C         2.665775         0.796031         1.369964
 O         1.330738         0.632837         1.023977
 C         3.504130        -0.286397         0.899575
 O         4.757924        -0.696762         1.522591
 C         2.592027        -1.332203         0.205076
 H        -0.079132         0.638389        -1.343254
 H         0.270147        -0.985348        -1.876650
 H        -0.537778        -0.633872        -0.270201
 H         2.780295         0.510658        -1.925704
 H         1.800914         1.806151        -0.990963
 H         4.327660         1.822110         0.251210
 H         2.825979         1.480961         2.192579
 H         4.824813        -0.773717         2.464099
 H         2.972805        -1.628774        -0.782395
 H         2.190841        -2.108783         0.772365
