19
Iteration:  3677charge 0 multiplicity 1
 C         0.306380        -0.472061        -1.019956
 C         1.520569        -0.099384        -0.182109
 C         2.441669         0.944648        -0.876603
 C         3.524619         1.036269         0.177325
 C         2.753088         0.877037         1.439940
 O         1.315439         0.644578         0.978926
 C         3.531455        -0.338539         0.863630
 O         4.753007        -0.790820         1.367451
 C         2.498325        -1.223275         0.317278
 H         0.183323         0.353678        -1.732501
 H         0.515847        -1.481207        -1.569318
 H        -0.610873        -0.701076        -0.249981
 H         2.812215         0.602660        -1.899150
 H         1.991398         1.841776        -1.130529
 H         4.289165         1.702740         0.043960
 H         2.802769         1.278006         2.517556
 H         4.783893        -1.003130         2.269731
 H         2.792780        -1.838031        -0.523609
 H         1.969653        -1.869539         1.022522
