19
Iteration:  1296
 C         0.160841        -0.585213        -0.661073
 C         1.541157        -0.090206        -0.273683
 C         2.508790         0.868117        -1.103353
 C         3.573984         0.977049        -0.098770
 C         2.778833         0.959664         1.243208
 O         1.409181         0.813494         0.959667
 C         3.571937        -0.310643         0.903752
 O         4.712173        -0.932171         1.587145
 C         2.372520        -1.190662         0.422554
 H        -0.216137        -1.532607        -0.161877
 H        -0.567352         0.159578        -0.481666
 H         0.156944        -0.753347        -1.729446
 H         2.792216         0.567368        -2.091931
 H         1.946892         1.913125        -1.268514
 H         4.303652         1.773637        -0.175774
 H         2.972303         1.621633         2.070649
 H         5.520921        -0.471955         1.835716
 H         2.583536        -1.952236        -0.308718
 H         2.008194        -1.725910         1.297041
