19
Iteration:  3133
 C         0.246653        -0.456651        -0.949897
 C         1.505109        -0.036896        -0.266868
 C         2.566922         0.918124        -0.990176
 C         3.557265         1.025923         0.123305
 C         2.654569         0.875075         1.357032
 O         1.347689         0.546936         1.048589
 C         3.575998        -0.285090         0.895963
 O         4.750977        -0.771395         1.485947
 C         2.453010        -1.216777         0.298679
 H        -0.482733         0.359354        -0.997073
 H         0.379714        -0.968512        -1.910033
 H        -0.401275        -1.190943        -0.302494
 H         3.110883         0.496010        -1.935584
 H         2.183584         1.896589        -1.337726
 H         4.457292         1.486072        -0.107992
 H         2.765416         1.435837         2.323231
 H         4.523431        -0.899092         2.449658
 H         2.776761        -1.903785        -0.435548
 H         1.934982        -1.763930         1.012037
