19
Iteration:   862
 C         0.137619        -0.629808        -0.672688
 C         1.453048        -0.011681        -0.129841
 C         2.542110         0.743081        -1.096944
 C         3.558072         0.967043        -0.020825
 C         2.780010         1.000925         1.272938
 O         1.461318         0.939618         0.977590
 C         3.484714        -0.349003         0.888664
 O         4.712429        -0.815071         1.546382
 C         2.444214        -1.194448         0.261575
 H        -0.182833        -1.371926         0.163590
 H        -0.625861         0.136688        -0.879772
 H         0.449095        -1.211601        -1.589306
 H         2.890475        -0.016013        -1.933801
 H         2.096040         1.593191        -1.470685
 H         4.540186         1.376171        -0.135080
 H         3.129176         1.778115         1.996766
 H         4.501147        -1.622953         1.976938
 H         3.010685        -1.692057        -0.587112
 H         2.151603        -2.015710         0.969478
