19
Iteration:   329
 C         0.214105        -0.611314        -0.704421
 C         1.533975        -0.088263        -0.141867
 C         2.508690         0.653380        -1.080384
 C         3.593731         0.998260        -0.020781
 C         2.819240         1.089697         1.257279
 O         1.458974         0.910168         1.025605
 C         3.541778        -0.291449         0.796308
 O         4.569415        -0.870270         1.485546
 C         2.454490        -1.181313         0.364443
 H        -0.465426        -0.945407         0.052262
 H        -0.433894         0.109273        -1.346356
 H         0.425108        -1.518407        -1.179194
 H         2.959783         0.032034        -1.814985
 H         2.049775         1.588731        -1.477965
 H         4.459107         1.684212        -0.198611
 H         3.160715         1.769879         2.101671
 H         4.207360        -1.322574         2.234252
 H         2.715028        -1.834542        -0.454594
 H         2.017148        -1.776689         1.182949
