19
Iteration:  3881
 C         0.170605        -0.471828        -0.814493
 C         1.543655        -0.030182        -0.250813
 C         2.467126         1.030523        -0.965477
 C         3.517381         1.066321         0.139728
 C         2.701328         0.850409         1.416775
 O         1.352925         0.534959         1.053905
 C         3.624143        -0.362156         0.809796
 O         4.672394        -0.797909         1.567051
 C         2.637436        -1.240345         0.050449
 H        -0.088792         0.388586        -1.419579
 H         0.373978        -1.421741        -1.312010
 H        -0.662950        -0.575115        -0.071760
 H         2.715077         0.545000        -1.854477
 H         1.903431         1.984013        -1.249452
 H         4.301019         1.911216        -0.019795
 H         2.837099         1.396559         2.310954
 H         4.305536        -1.098278         2.368683
 H         3.167361        -1.547094        -0.874183
 H         2.343343        -2.251365         0.486333
