19
Iteration:  2128charge 0 multiplicity 1
 C         0.234882        -0.444590        -0.908478
 C         1.515755        -0.084790        -0.184459
 C         2.481283         0.848942        -0.947717
 C         3.562953         0.893248         0.054076
 C         2.702314         0.905085         1.371639
 O         1.355228         0.608732         1.080482
 C         3.533076        -0.260246         0.954422
 O         4.743603        -0.776017         1.488201
 C         2.462034        -1.200948         0.223894
 H         0.250674        -1.534897        -1.149240
 H        -0.653967        -0.270418        -0.256059
 H         0.043708         0.128233        -1.772637
 H         2.767438         0.527824        -1.902263
 H         1.981876         1.869068        -1.319578
 H         4.358527         1.583500         0.121032
 H         2.976691         1.720981         2.055691
 H         5.449128        -0.164197         1.188671
 H         2.854683        -1.759370        -0.689426
 H         2.017759        -2.070613         0.804198
