19
Iteration:  4893
 C         0.180314        -0.491426        -0.635021
 C         1.570933        -0.034661        -0.305946
 C         2.603596         0.884630        -1.090252
 C         3.600035         1.026393         0.066670
 C         2.671949         0.897399         1.343283
 O         1.342167         0.674343         0.971348
 C         3.539987        -0.283247         0.871217
 O         4.605880        -0.871480         1.531193
 C         2.589049        -1.202400         0.213416
 H        -0.028941        -1.522422        -0.229358
 H        -0.611608         0.155525        -0.172078
 H        -0.034888        -0.406688        -1.688530
 H         2.896485         0.443936        -1.979536
 H         2.185766         1.796381        -1.649623
 H         4.268962         1.840570         0.244325
 H         2.969074         1.516896         2.263020
 H         4.296473        -1.233897         2.368526
 H         3.147774        -1.667596        -0.633408
 H         2.210230        -2.086824         0.798683
