19
Iteration:  4075
 C         0.254242        -0.407881        -0.993823
 C         1.609772        -0.081937        -0.220632
 C         2.404078         0.961647        -0.886536
 C         3.482027         1.043233         0.202146
 C         2.704155         0.832054         1.448748
 O         1.316180         0.485810         1.066896
 C         3.553751        -0.267813         0.898218
 O         4.754152        -0.802707         1.383574
 C         2.561141        -1.172395         0.125461
 H        -0.087554         0.502510        -1.452011
 H         0.346634        -1.204437        -1.714993
 H        -0.331090        -0.808705        -0.216402
 H         2.729898         0.584054        -1.945641
 H         1.990252         1.915081        -1.047912
 H         4.347180         1.743804         0.179633
 H         2.768246         1.299843         2.471035
 H         4.732202        -0.951902         2.318694
 H         3.061655        -1.838906        -0.544926
 H         2.025513        -1.817866         0.787745
