19
Iteration:  1348
 C         0.141224        -0.411559        -0.703634
 C         1.509216        -0.085728        -0.162720
 C         2.539992         0.574338        -1.130963
 C         3.537521         1.080348        -0.036128
 C         2.834534         0.910363         1.278370
 O         1.390654         0.779441         1.103853
 C         3.592818        -0.344704         0.773948
 O         4.699887        -0.731331         1.567163
 C         2.436707        -1.241464         0.228294
 H        -0.346501        -1.251446        -0.097185
 H        -0.529478         0.534662        -0.523316
 H         0.159660        -0.521294        -1.742467
 H         2.914083        -0.162003        -1.751432
 H         1.982262         1.303149        -1.809660
 H         4.374524         1.687323        -0.136508
 H         3.053907         1.468644         2.193067
 H         4.525373        -0.665565         2.487899
 H         2.878408        -1.908836        -0.528126
 H         1.977681        -1.786975         1.131736
