19
Iteration:  3924charge 0 multiplicity 1
 C         0.193333        -0.363306        -0.878251
 C         1.532934        -0.127478        -0.192466
 C         2.507616         0.930132        -0.976641
 C         3.451414         1.061469         0.172402
 C         2.657978         0.747161         1.408393
 O         1.355700         0.585898         1.020744
 C         3.542089        -0.305541         0.825554
 O         4.767351        -0.677173         1.482751
 C         2.610752        -1.292619         0.138698
 H        -0.263337         0.622041        -0.803306
 H         0.448537        -0.847006        -1.833967
 H        -0.438998        -1.034289        -0.250244
 H         3.082295         0.565298        -1.749090
 H         2.049225         1.886599        -1.174961
 H         4.448867         1.671091         0.216415
 H         2.739395         1.214287         2.334253
 H         4.496837        -1.415097         2.005353
 H         2.904621        -1.820657        -0.765965
 H         2.149115        -1.936639         0.919404
