19
Iteration:  4053
 C         0.140248        -0.347626        -0.824756
 C         1.632212        -0.151173        -0.242858
 C         2.523629         1.027030        -0.982475
 C         3.432226         1.119200         0.182066
 C         2.649466         0.713318         1.430157
 O         1.343262         0.541481         0.998874
 C         3.565265        -0.357436         0.801173
 O         4.768050        -0.716874         1.526416
 C         2.578192        -1.307401         0.102008
 H        -0.250120         0.669620        -0.835103
 H         0.096616        -0.721494        -1.846745
 H        -0.301669        -1.047151        -0.166082
 H         3.014343         0.684639        -2.006320
 H         1.991770         1.905039        -1.258228
 H         4.353334         1.807810         0.302493
 H         2.800530         1.200273         2.425831
 H         4.433095        -0.946618         2.454975
 H         2.953804        -1.698763        -0.830960
 H         2.411852        -2.161801         0.697838
