19
Iteration:  2731charge 0 multiplicity 1
 C         0.160649        -0.520925        -0.893365
 C         1.564596        -0.051900        -0.254328
 C         2.496016         0.848602        -1.041091
 C         3.503680         0.987271         0.119838
 C         2.666092         0.873853         1.424082
 O         1.347795         0.723360         0.983785
 C         3.591889        -0.286717         0.980635
 O         4.778476        -0.776527         1.559271
 C         2.553722        -1.195803         0.165035
 H        -0.181215         0.145602        -1.644166
 H         0.170082        -1.568225        -1.320678
 H        -0.663387        -0.659394        -0.066635
 H         2.883733         0.410453        -1.919926
 H         2.028260         1.924640        -1.268343
 H         4.275329         1.635086         0.038648
 H         2.894812         1.590305         2.209567
 H         4.488580        -1.579820         2.122454
 H         3.141970        -1.706822        -0.625276
 H         2.044367        -1.945494         0.707136
