19
Iteration:  3951
 C         0.265346        -0.457942        -1.009334
 C         1.535893        -0.002446        -0.243478
 C         2.512280         0.848805        -0.905838
 C         3.527710         1.030722         0.184346
 C         2.631287         0.835108         1.467829
 O         1.280198         0.630164         1.105193
 C         3.485938        -0.291702         0.967194
 O         4.833577        -0.755868         1.285129
 C         2.506700        -1.236728         0.203446
 H        -0.451528         0.205846        -0.540922
 H         0.461407        -0.583392        -2.068917
 H         0.049232        -1.435823        -0.559017
 H         3.125839         0.336159        -1.764070
 H         2.255963         1.906298        -1.252799
 H         4.367022         1.592371         0.129936
 H         2.662041         1.373625         2.475831
 H         4.750380        -1.092244         2.154306
 H         2.976629        -1.786092        -0.679531
 H         1.935753        -1.970260         0.815758
