19
Iteration:   401
 C         0.214074        -0.326226        -0.739492
 C         1.527138        -0.089586        -0.213143
 C         2.480396         0.584251        -1.099745
 C         3.519004         0.819747        -0.026308
 C         2.760668         0.823817         1.314333
 O         1.420632         0.882555         1.017603
 C         3.542044        -0.414601         0.859132
 O         4.751329        -0.523475         1.512402
 C         2.411874        -1.275921         0.331864
 H        -0.505693        -0.137613         0.081047
 H        -0.113680         0.372830        -1.557542
 H        -0.093398        -1.352566        -1.121834
 H         2.896205        -0.188909        -1.895087
 H         2.076692         1.513396        -1.452190
 H         4.579088         1.335993        -0.117370
 H         3.210424         1.243217         2.216760
 H         4.585288        -0.853958         2.400229
 H         2.728143        -2.009073        -0.434594
 H         1.964715        -1.870646         1.204277
