19
Iteration:   814charge 0 multiplicity 1
 C         0.088108        -0.251761        -0.833259
 C         1.525352        -0.141128        -0.204697
 C         2.435162         0.695969        -1.089409
 C         3.581942         0.952878        -0.057691
 C         2.775742         0.982607         1.252769
 O         1.419337         0.635370         1.050700
 C         3.544946        -0.298396         1.015226
 O         4.773925        -0.716526         1.458864
 C         2.493237        -1.367565         0.433292
 H        -0.591064        -0.237268        -0.052789
 H        -0.142840         0.539631        -1.598181
 H         0.106006        -1.203764        -1.272478
 H         2.739482         0.060857        -1.917687
 H         1.913797         1.669914        -1.447458
 H         4.544495         1.561211        -0.364242
 H         3.017628         1.751619         1.969411
 H         4.891611        -0.527178         2.438999
 H         2.851416        -2.053964        -0.303847
 H         1.786766        -1.895988         1.128887
