19
Iteration:  4482charge 0 multiplicity 1
 C         0.166367        -0.469975        -0.756372
 C         1.520236        -0.124048        -0.259780
 C         2.619259         0.817391        -1.083656
 C         3.590570         0.998049         0.136829
 C         2.707290         0.859891         1.376388
 O         1.363989         0.716968         0.923193
 C         3.484361        -0.288291         0.946882
 O         4.711153        -0.743363         1.516506
 C         2.482207        -1.223084         0.221016
 H        -0.086987        -0.118208        -1.764357
 H        -0.064193        -1.521734        -0.722081
 H        -0.614571        -0.080185        -0.157854
 H         3.181687         0.306230        -1.810841
 H         2.271699         1.754297        -1.454314
 H         4.274591         1.845997         0.182126
 H         2.996328         1.424170         2.314268
 H         4.532424        -1.307794         2.298232
 H         2.912556        -1.428986        -0.776256
 H         2.089644        -2.046127         0.805216
