19
Iteration:  1809charge 0 multiplicity 1
 C         0.170636        -0.620942        -0.868050
 C         1.508529        -0.018258        -0.186908
 C         2.487442         0.759702        -1.009489
 C         3.566323         1.026937         0.013849
 C         2.830966         0.977956         1.338799
 O         1.429735         0.688978         1.115866
 C         3.590072        -0.206920         0.823117
 O         4.635660        -0.831129         1.549911
 C         2.420400        -1.134134         0.299160
 H        -0.277653        -1.482637        -0.420482
 H        -0.723644        -0.006225        -0.677720
 H         0.271172        -0.636441        -2.048419
 H         2.857419         0.098900        -1.691230
 H         2.053682         1.734112        -1.472401
 H         4.456988         1.715323        -0.050904
 H         3.060878         1.612118         2.181822
 H         5.210014        -1.263922         0.938168
 H         2.769454        -1.908105        -0.451304
 H         1.921009        -1.752939         1.053612
