19
Iteration:  2760
 C         0.350920        -0.625608        -0.828837
 C         1.599015        -0.008357        -0.181539
 C         2.576947         0.932747        -0.992496
 C         3.558249         1.088211         0.134213
 C         2.663655         0.921558         1.359675
 O         1.351319         0.691423         1.037021
 C         3.513976        -0.233201         0.803874
 O         4.590000        -0.853881         1.427800
 C         2.483558        -1.214098         0.252968
 H        -0.319104        -0.134556        -1.611722
 H         0.604009        -1.524179        -1.353066
 H        -0.379865        -0.885411        -0.141552
 H         2.981071         0.285326        -1.845880
 H         2.154396         1.786069        -1.336849
 H         4.612315         1.584879         0.069678
 H         2.810598         1.416019         2.281865
 H         4.289487        -1.067700         2.348874
 H         2.854477        -1.992130        -0.489030
 H         1.912449        -1.952267         0.991642
