19
Iteration:  4722
 C         0.201820        -0.355422        -0.857905
 C         1.560880        -0.052037        -0.237688
 C         2.499388         0.943531        -1.054778
 C         3.526358         1.010457         0.074256
 C         2.742436         0.843262         1.369766
 O         1.416321         0.537026         1.121459
 C         3.533595        -0.356692         0.803754
 O         4.680811        -0.745426         1.620030
 C         2.512443        -1.301575         0.129125
 H        -0.212532        -1.113133        -0.219447
 H        -0.486738         0.526018        -0.856182
 H         0.183804        -0.665779        -1.878438
 H         2.802093         0.335201        -2.008323
 H         1.992192         1.823720        -1.318076
 H         4.449117         1.529216        -0.036729
 H         2.942482         1.489064         2.211575
 H         4.380619        -0.384794         2.435183
 H         2.884077        -1.738968        -0.789747
 H         2.130017        -2.009383         0.811464
