19
Iteration:  1285
 C         0.180297        -0.567020        -0.695575
 C         1.505906        -0.056575        -0.148901
 C         2.507146         0.794918        -1.123204
 C         3.554318         1.040518         0.032409
 C         2.825211         0.960595         1.253380
 O         1.434602         0.810006         0.951756
 C         3.582987        -0.327154         0.822754
 O         4.622809        -0.884284         1.551707
 C         2.408763        -1.220057         0.384690
 H        -0.133714        -1.455110        -0.060845
 H        -0.572361         0.179420        -0.670952
 H         0.276153        -0.921911        -1.705171
 H         2.916660         0.263311        -1.944244
 H         1.857632         1.713930        -1.442751
 H         4.524471         1.470612         0.010605
 H         3.022149         1.624878         2.083474
 H         5.355056        -0.331243         1.334186
 H         2.727097        -1.991292        -0.290759
 H         1.868957        -1.623731         1.252818
