19
Iteration:  4384
 C         0.285289        -0.541773        -0.852118
 C         1.583075        -0.059839        -0.238111
 C         2.513803         0.898887        -1.014149
 C         3.487592         1.037061         0.166664
 C         2.714260         0.972327         1.468410
 O         1.372334         0.719147         0.928275
 C         3.473216        -0.275892         0.939121
 O         4.714627        -0.932563         1.395125
 C         2.438863        -1.248986         0.272669
 H         0.448432        -1.194326        -1.716766
 H        -0.235493        -1.122589        -0.151055
 H        -0.356899         0.203590        -1.261584
 H         3.033475         0.334039        -1.751017
 H         2.110739         1.845575        -1.384740
 H         4.378491         1.635969         0.141237
 H         2.574585         1.493761         2.381210
 H         5.248822        -0.258557         1.890801
 H         2.994375        -1.875039        -0.413828
 H         1.993127        -1.790572         1.105331
