19
Iteration:  4832
 C         0.259133        -0.346415        -0.938789
 C         1.562620        -0.085989        -0.230779
 C         2.422724         0.888348        -0.957042
 C         3.588503         0.889108         0.057995
 C         2.698573         0.839329         1.466317
 O         1.326480         0.593034         1.057311
 C         3.554357        -0.301562         0.880083
 O         4.792872        -0.694617         1.445939
 C         2.420568        -1.248782         0.251978
 H        -0.578874        -0.540862        -0.313688
 H         0.062789         0.537355        -1.556638
 H         0.383692        -1.259252        -1.532907
 H         2.701521         0.432095        -1.982392
 H         1.945016         1.802106        -0.952137
 H         4.537366         1.407525        -0.269476
 H         2.921600         1.521903         2.333517
 H         4.684923        -0.956167         2.392399
 H         2.902101        -1.778740        -0.570782
 H         1.991686        -1.908679         0.971677
