19
Iteration:  3640
 C         0.153343        -0.360239        -0.857845
 C         1.584780        -0.072728        -0.263685
 C         2.563805         0.818789        -1.025231
 C         3.508033         1.000639         0.141074
 C         2.707559         0.826296         1.404678
 O         1.318873         0.495237         1.034737
 C         3.577170        -0.329302         0.969884
 O         4.732207        -0.639523         1.506634
 C         2.529813        -1.179210         0.137740
 H        -0.209155         0.395496        -1.616145
 H         0.081411        -1.285297        -1.354265
 H        -0.567670        -0.276374        -0.039784
 H         3.082731         0.220605        -1.683784
 H         2.157113         1.841887        -1.392642
 H         4.382803         1.828020         0.147615
 H         2.784302         1.347644         2.299914
 H         4.649632        -1.489994         1.942947
 H         2.931944        -1.546191        -0.837476
 H         1.936002        -1.937293         0.723940
