19
Iteration:  2607
 C         0.181757        -0.649848        -0.877222
 C         1.537640        -0.030708        -0.239035
 C         2.550806         0.875275        -1.029717
 C         3.563596         1.076110         0.065001
 C         2.729460         0.886345         1.362324
 O         1.298691         0.704785         1.038532
 C         3.654452        -0.222968         0.844812
 O         4.591851        -0.947193         1.564233
 C         2.562677        -1.102736         0.207993
 H        -0.694388        -0.088507        -0.411438
 H         0.092405        -0.657716        -1.943086
 H         0.141866        -1.663905        -0.579581
 H         2.924653         0.300910        -2.001230
 H         2.252002         1.873609        -1.295116
 H         4.385092         1.777910         0.261441
 H         2.886471         1.364386         2.341740
 H         4.825935        -0.316933         2.338230
 H         2.965176        -1.798909        -0.564864
 H         2.140647        -1.650835         1.124707
