19
Iteration:  3048
 C         0.259606        -0.583130        -0.848302
 C         1.548429         0.002971        -0.257983
 C         2.521444         0.871290        -1.060082
 C         3.556159         1.111297         0.127594
 C         2.726265         0.885941         1.401216
 O         1.345885         0.678681         1.021919
 C         3.530732        -0.298885         0.863110
 O         4.664325        -0.827673         1.527822
 C         2.500183        -1.194893         0.198018
 H        -0.534336         0.047691        -0.891239
 H         0.523592        -0.885321        -1.899692
 H         0.085970        -1.335916        -0.066847
 H         3.040066         0.321506        -1.760013
 H         2.186357         1.883323        -1.473582
 H         4.475176         1.675257         0.085077
 H         2.909978         1.302837         2.438556
 H         4.283386        -1.274568         2.278749
 H         2.839875        -1.925265        -0.621431
 H         1.849563        -1.712902         0.957452
