19
Iteration:  2001
 C         0.227450        -0.372161        -0.811632
 C         1.498402        -0.095089        -0.232586
 C         2.468703         0.887228        -1.048304
 C         3.488636         0.959467         0.041781
 C         2.721574         0.913348         1.360064
 O         1.340805         0.569063         1.052320
 C         3.591795        -0.289625         0.921098
 O         4.763743        -0.834251         1.478192
 C         2.526048        -1.221938         0.253191
 H        -0.178993        -1.403549        -0.527752
 H        -0.530626         0.336198        -0.497089
 H         0.315296        -0.365175        -1.873975
 H         2.834498         0.329415        -2.047554
 H         1.920336         1.761897        -1.176886
 H         4.300506         1.621922        -0.052402
 H         2.789355         1.563851         2.232729
 H         5.165803        -0.111184         2.089179
 H         2.947513        -1.806536        -0.547069
 H         2.030911        -1.826566         1.037596
