19
Iteration:  3067charge 0 multiplicity 1
 C         0.199733        -0.449129        -0.820219
 C         1.576300        -0.081233        -0.305013
 C         2.570994         0.889874        -1.070344
 C         3.539237         0.964358         0.070624
 C         2.680596         0.822183         1.340656
 O         1.323138         0.585160         1.014794
 C         3.541776        -0.291881         0.889536
 O         4.728688        -0.745080         1.609439
 C         2.521123        -1.143024         0.238499
 H        -0.447645         0.396616        -0.407365
 H         0.247031        -0.410905        -1.900541
 H        -0.268703        -1.429293        -0.421396
 H         2.958137         0.363148        -2.065783
 H         2.217370         1.920568        -1.298778
 H         4.314944         1.821382         0.163832
 H         2.704605         1.556704         2.139276
 H         4.483701        -1.449582         2.257500
 H         2.907093        -1.712246        -0.558708
 H         2.038126        -1.791969         0.907787
