19
Iteration:  4068charge 0 multiplicity 1
 C         0.259897        -0.370162        -0.912686
 C         1.569438        -0.099822        -0.276639
 C         2.447641         0.932401        -0.914544
 C         3.495317         1.116298         0.212854
 C         2.701800         0.779409         1.400703
 O         1.321849         0.503158         1.045557
 C         3.552631        -0.298489         0.907633
 O         4.759362        -0.778222         1.423711
 C         2.580849        -1.228014         0.115194
 H        -0.186682         0.585299        -1.231652
 H         0.407791        -1.103303        -1.721110
 H        -0.548080        -0.847995        -0.190834
 H         2.853222         0.735437        -1.838423
 H         1.776745         1.874457        -0.962833
 H         4.204511         1.844101         0.158819
 H         2.751113         1.240567         2.400085
 H         4.734153        -0.935216         2.347602
 H         3.059873        -1.866663        -0.665608
 H         1.899951        -1.870114         0.730134
