19
Iteration:  4167
 C         0.170922        -0.326614        -0.776397
 C         1.553664        -0.122984        -0.279487
 C         2.524971         0.922119        -1.001404
 C         3.427582         1.113889         0.190707
 C         2.676974         0.735508         1.509749
 O         1.346442         0.461747         1.027735
 C         3.533880        -0.262719         0.823221
 O         4.771183        -0.728941         1.563326
 C         2.644078        -1.203190        -0.039411
 H        -0.345088         0.652460        -0.906700
 H         0.320025        -0.775730        -1.805416
 H        -0.390518        -1.113017        -0.170833
 H         2.834781         0.579169        -1.914237
 H         1.884394         1.872225        -1.238715
 H         4.472641         1.615015         0.008581
 H         2.794182         1.247890         2.455514
 H         4.446252        -1.139124         2.384428
 H         3.054274        -1.643138        -0.966596
 H         2.203313        -2.054695         0.504490
