19
Iteration:  2798
 C         0.148750        -0.432032        -0.910231
 C         1.500222        -0.019353        -0.276149
 C         2.493001         0.842143        -1.039952
 C         3.536687         0.948015         0.042001
 C         2.669421         0.912834         1.376382
 O         1.327409         0.639698         0.992125
 C         3.561540        -0.332060         0.971848
 O         4.829673        -0.792160         1.616025
 C         2.565326        -1.233250         0.231282
 H        -0.349037         0.477669        -0.910161
 H         0.426434        -0.779260        -1.956237
 H        -0.263135        -1.351055        -0.370177
 H         2.787574         0.341892        -1.947536
 H         2.019419         1.907005        -1.343846
 H         4.403873         1.655460        -0.006893
 H         2.699967         1.654898         2.203110
 H         4.622186        -0.870671         2.520267
 H         2.891051        -1.739160        -0.681445
 H         2.090285        -1.854639         0.951074
