19
Iteration:  3319
 C         0.197821        -0.578854        -0.815620
 C         1.564315         0.008741        -0.275944
 C         2.596465         0.912387        -1.011846
 C         3.493773         1.003042         0.063397
 C         2.696591         0.914583         1.357193
 O         1.309319         0.637999         1.034423
 C         3.554801        -0.320640         0.957390
 O         4.674704        -0.801395         1.607118
 C         2.557536        -1.127909         0.132336
 H        -0.474600         0.029153        -0.303972
 H         0.203908        -0.368820        -1.977246
 H        -0.017022        -1.664565        -0.621119
 H         2.963423         0.496242        -1.979541
 H         2.023283         1.748149        -1.232533
 H         4.405489         1.699643         0.241928
 H         3.110957         1.544532         2.156730
 H         4.590486        -1.811414         1.660978
 H         3.112633        -1.584177        -0.739695
 H         1.936480        -1.963159         0.582880
