19
Iteration:  2481
 C         0.242296        -0.664452        -0.839324
 C         1.563461        -0.013767        -0.268096
 C         2.556817         0.955648        -1.028095
 C         3.539982         1.118242         0.184313
 C         2.641952         0.873126         1.381958
 O         1.307226         0.710685         0.977669
 C         3.615305        -0.288905         0.857826
 O         4.734349        -0.838326         1.577609
 C         2.483690        -1.193098         0.173552
 H        -0.263803         0.020466        -1.552663
 H         0.429854        -1.647996        -1.257758
 H        -0.369030        -0.736567         0.134967
 H         2.845775         0.603837        -2.000802
 H         1.972683         1.972103        -1.188413
 H         4.376722         1.855657         0.133415
 H         2.822337         1.425765         2.294998
 H         4.450376        -1.766841         1.575045
 H         2.710816        -1.917427        -0.691076
 H         2.177873        -1.958368         1.051887
