19
Iteration:   294
 C         0.190426        -0.557290        -0.643451
 C         1.565955        -0.027384        -0.191719
 C         2.466047         0.767554        -1.162994
 C         3.560751         0.791136        -0.028871
 C         2.771365         0.958357         1.288862
 O         1.466186         0.891245         0.863407
 C         3.548408        -0.340359         0.948035
 O         4.699619        -0.763435         1.529763
 C         2.400804        -1.184474         0.403914
 H         0.063372        -1.446500        -0.070514
 H        -0.745000         0.162889        -0.570749
 H         0.239233        -0.671465        -1.725219
 H         2.692666         0.339169        -2.185610
 H         2.019789         1.701290        -1.379574
 H         4.552628         1.421305        -0.093414
 H         3.006630         1.624519         2.058889
 H         4.503186        -1.212854         2.347677
 H         2.712356        -1.898951        -0.363248
 H         1.802026        -1.704401         1.247571
