19
Iteration:  1631
 C         0.140230        -0.331416        -0.651828
 C         1.561017        -0.120053        -0.209619
 C         2.432324         0.781904        -1.109070
 C         3.604870         0.888600        -0.062540
 C         2.752777         0.950623         1.255094
 O         1.378915         0.656610         0.955722
 C         3.602428        -0.283105         0.895118
 O         4.727157        -0.816956         1.651506
 C         2.525503        -1.253740         0.254214
 H        -0.513512        -0.733731         0.198093
 H        -0.362477         0.610012        -0.943093
 H        -0.099849        -0.964160        -1.474161
 H         2.512891         0.198513        -2.067089
 H         1.729096         1.619426        -1.297970
 H         4.427167         1.523798        -0.131609
 H         2.741652         1.659697         2.091973
 H         5.096262        -0.070192         2.070448
 H         2.923948        -1.704467        -0.627289
 H         1.964834        -1.934261         0.937239
