19
Iteration:  4049charge 0 multiplicity 1
 C         0.126416        -0.343135        -0.828119
 C         1.626203        -0.138121        -0.225701
 C         2.523763         1.020011        -1.006691
 C         3.437691         1.076059         0.207001
 C         2.682896         0.716059         1.430404
 O         1.333577         0.537249         0.992852
 C         3.568605        -0.322440         0.780009
 O         4.750272        -0.703042         1.550353
 C         2.602625        -1.289986         0.074608
 H        -0.303070         0.673928        -0.621017
 H        -0.006709        -0.739098        -1.862585
 H        -0.251797        -1.127121        -0.148485
 H         2.978232         0.615014        -1.916989
 H         2.061918         1.995468        -1.324893
 H         4.340046         1.680414         0.312873
 H         2.747359         1.118841         2.392445
 H         4.438391        -0.960743         2.393509
 H         3.008508        -1.758976        -0.864669
 H         2.367023        -2.227061         0.695939
