19
Iteration:  1243
 C         0.121488        -0.342956        -0.766234
 C         1.508723        -0.105702        -0.184524
 C         2.455928         0.723498        -1.066233
 C         3.505918         0.937580        -0.014031
 C         2.790189         1.006108         1.268778
 O         1.387972         0.689153         1.004784
 C         3.540705        -0.347123         0.970851
 O         4.781291        -0.709595         1.572229
 C         2.505059        -1.267740         0.325352
 H        -0.717912        -0.641677        -0.101121
 H        -0.181823         0.441523        -1.376598
 H         0.150904        -1.296215        -1.387641
 H         2.834066        -0.012662        -1.843477
 H         2.144784         1.638723        -1.557430
 H         4.360380         1.581506        -0.090905
 H         3.063053         1.714703         2.048854
 H         5.333467        -1.275249         1.009256
 H         2.650917        -1.941333        -0.521008
 H         2.056768        -1.878089         1.118781
