19
Iteration:  2934
 C         0.112142        -0.445075        -0.889705
 C         1.533919        -0.091819        -0.299079
 C         2.504994         0.892619        -1.025201
 C         3.567432         0.970567         0.047748
 C         2.709233         0.893934         1.364306
 O         1.354194         0.594468         1.034212
 C         3.523509        -0.291426         0.983228
 O         4.794865        -0.741897         1.587936
 C         2.564067        -1.218497         0.191067
 H        -0.267486         0.306155        -1.719215
 H         0.040416        -1.333685        -1.520070
 H        -0.689408        -0.529912        -0.133728
 H         2.999376         0.417651        -2.011210
 H         2.136414         1.878720        -1.177945
 H         4.366367         1.577007         0.158175
 H         2.848632         1.532370         2.266732
 H         4.537748        -1.242046         2.415374
 H         3.035294        -1.719161        -0.591604
 H         1.967829        -1.810882         0.821347
