19
Iteration:  4509
 C         0.355754        -0.470173        -0.937693
 C         1.521897        -0.069077        -0.196774
 C         2.469239         0.833654        -0.994749
 C         3.533541         1.034780         0.085824
 C         2.775424         0.957697         1.359627
 O         1.272017         0.674002         1.012991
 C         3.525653        -0.253110         0.866962
 O         4.672773        -0.918514         1.441585
 C         2.511564        -1.163424         0.388195
 H         0.290798        -0.202851        -2.000297
 H         0.216861        -1.581552        -0.865598
 H        -0.651145        -0.269107        -0.443302
 H         2.940905         0.334902        -1.945706
 H         2.059932         1.901109        -1.350526
 H         4.513807         1.419297        -0.151258
 H         3.142070         1.443939         2.206141
 H         4.581536        -0.923968         2.400648
 H         2.960973        -1.815540        -0.375245
 H         2.043499        -1.596090         1.321284
