19
Iteration:  3682
 C         0.303369        -0.531551        -1.030823
 C         1.530319        -0.083262        -0.191107
 C         2.450571         0.923212        -0.895385
 C         3.527304         1.034475         0.158841
 C         2.713375         0.880665         1.438878
 O         1.352608         0.645634         1.030706
 C         3.502581        -0.324098         0.874024
 O         4.766578        -0.821505         1.359459
 C         2.440521        -1.187795         0.280290
 H         0.166187         0.353151        -1.668285
 H         0.585547        -1.390816        -1.615973
 H        -0.421567        -0.650887        -0.322996
 H         2.811543         0.558591        -1.877292
 H         1.993750         1.988340        -1.023154
 H         4.331937         1.886643         0.148076
 H         2.883509         1.276773         2.392273
 H         4.696351        -0.896955         2.373270
 H         2.915982        -1.844528        -0.497624
 H         2.049254        -1.768632         1.155647
