19
Iteration:  4861
 C         0.150758        -0.364334        -0.829090
 C         1.534825        -0.092059        -0.223373
 C         2.440363         0.892973        -1.044110
 C         3.586418         1.014345         0.055663
 C         2.783831         0.820743         1.328639
 O         1.442915         0.605913         1.059316
 C         3.590833        -0.334044         0.800270
 O         4.653536        -0.719295         1.654850
 C         2.480265        -1.306711         0.143855
 H        -0.410649        -1.089141        -0.210116
 H        -0.399036         0.594340        -0.975560
 H         0.328842        -0.773783        -1.815845
 H         2.753992         0.372382        -1.956867
 H         1.869176         1.873403        -1.161975
 H         4.317984         1.766254        -0.033581
 H         3.130026         1.343185         2.270927
 H         4.415501        -0.795798         2.631630
 H         2.953023        -1.616352        -0.802602
 H         2.231818        -2.192711         0.775541
