19
Iteration:   624charge 0 multiplicity 1
 C         0.144235        -0.483454        -0.686104
 C         1.489722        -0.057758        -0.194324
 C         2.571039         0.643318        -1.119317
 C         3.649875         0.939581        -0.100043
 C         2.766261         1.010733         1.230828
 O         1.405626         0.734844         1.080923
 C         3.538593        -0.250761         0.895271
 O         4.650705        -0.781330         1.530625
 C         2.471659        -1.155296         0.322682
 H        -0.433589        -0.661992         0.277423
 H        -0.397714         0.217135        -1.336969
 H         0.147622        -1.403550        -1.265805
 H         3.034336        -0.056364        -1.851410
 H         2.257959         1.665306        -1.615991
 H         4.436951         1.782386        -0.241488
 H         3.008152         1.637233         2.099401
 H         4.243212        -1.288721         2.257428
 H         2.837768        -1.897574        -0.453744
 H         1.929091        -1.758040         1.085763
