19
Iteration:  4576charge 0 multiplicity 1
 C         0.164502        -0.364089        -0.700980
 C         1.590040        -0.116912        -0.360302
 C         2.633233         0.768912        -1.037796
 C         3.544975         0.961209         0.110343
 C         2.683967         0.863084         1.347511
 O         1.312408         0.642338         1.013182
 C         3.567724        -0.290245         0.882727
 O         4.672261        -0.699892         1.549394
 C         2.535050        -1.217028         0.137053
 H        -0.013478        -0.352830        -1.812631
 H        -0.062237        -1.353091        -0.308667
 H        -0.547135         0.402878        -0.272399
 H         3.158692         0.134356        -1.835380
 H         2.068437         1.700530        -1.300573
 H         4.335134         1.618888         0.249638
 H         2.876189         1.654123         2.081203
 H         4.324481        -1.283909         2.295351
 H         2.909111        -1.805964        -0.687744
 H         2.102204        -1.809755         0.970881
