19
Iteration:  4669charge 0 multiplicity 1
 C         0.284138        -0.496758        -0.931462
 C         1.567661        -0.104080        -0.213130
 C         2.558732         0.892187        -0.994588
 C         3.552575         1.056081         0.166195
 C         2.626542         0.958658         1.399638
 O         1.255841         0.715624         1.047002
 C         3.510548        -0.309026         0.910710
 O         4.819826        -0.885957         1.332341
 C         2.453772        -1.220210         0.300913
 H         0.189446        -1.573302        -0.958861
 H        -0.573385        -0.111824        -0.303291
 H         0.179335        -0.086080        -1.933871
 H         3.149842         0.397487        -1.760220
 H         1.929012         1.765052        -1.260755
 H         4.459266         1.602351         0.091586
 H         2.810680         1.278864         2.407608
 H         4.786197        -1.025315         2.268460
 H         2.872189        -1.927765        -0.449468
 H         1.876763        -1.672692         1.092179
