19
Iteration:  2882
 C         0.258857        -0.611441        -0.926696
 C         1.541266        -0.013204        -0.239384
 C         2.506383         0.843037        -1.006934
 C         3.556067         0.998240         0.095396
 C         2.734239         0.989601         1.411553
 O         1.332983         0.719800         1.017210
 C         3.511321        -0.271749         0.942969
 O         4.706566        -0.888937         1.477417
 C         2.499979        -1.123173         0.266326
 H        -0.706904        -0.063569        -0.916500
 H         0.503777        -0.705171        -1.932051
 H        -0.093631        -1.573897        -0.466964
 H         2.899319         0.297949        -1.844098
 H         2.121935         1.786680        -1.290332
 H         4.507345         1.492998        -0.011064
 H         2.924397         1.665955         2.275589
 H         4.432820        -1.082513         2.451428
 H         3.055735        -1.638262        -0.614028
 H         1.962679        -1.962986         0.843994
