19
Iteration:   664
 C         0.153548        -0.287802        -0.765126
 C         1.573539        -0.189965        -0.225928
 C         2.484563         0.646586        -0.991314
 C         3.569486         0.817757        -0.061598
 C         2.728472         0.908277         1.254660
 O         1.364352         0.808416         0.915057
 C         3.622464        -0.354552         0.931194
 O         4.819507        -0.589617         1.535533
 C         2.329557        -1.354158         0.380515
 H        -0.413437        -1.058786        -0.233644
 H        -0.163577         0.857852        -0.594848
 H         0.194782        -0.452967        -1.814632
 H         2.497724         0.006927        -2.013535
 H         1.977363         1.510807        -1.169824
 H         4.294183         1.717685        -0.304330
 H         3.068710         1.519062         2.091656
 H         4.946719        -0.580314         2.506317
 H         2.684231        -2.086940        -0.307093
 H         1.975601        -1.924432         1.283104
