19
Iteration:  2384charge 0 multiplicity 1
 C         0.269421        -0.465958        -0.836173
 C         1.536718        -0.118944        -0.240582
 C         2.594575         0.818971        -0.968208
 C         3.552966         1.046191         0.120238
 C         2.664248         0.946754         1.320638
 O         1.321773         0.593323         1.004709
 C         3.519709        -0.327854         0.852217
 O         4.709021        -0.740171         1.438223
 C         2.444796        -1.198970         0.316843
 H        -0.347870         0.187310        -0.353064
 H         0.335174        -0.285941        -1.889760
 H         0.115280        -1.558227        -0.667240
 H         3.041649         0.325745        -1.872625
 H         2.275334         1.844844        -1.325711
 H         4.435779         1.559563         0.112306
 H         2.868736         1.567874         2.188579
 H         4.661803        -0.594816         2.422854
 H         2.741533        -1.884745        -0.468788
 H         1.925021        -1.974097         0.910892
