19
Iteration:  1337
 C         0.175681        -0.441792        -0.682486
 C         1.520133        -0.146675        -0.078532
 C         2.556956         0.663467        -1.109413
 C         3.545697         1.033532        -0.102363
 C         2.808139         1.003328         1.267302
 O         1.461462         0.779891         1.058242
 C         3.516469        -0.293404         0.850293
 O         4.629956        -0.806300         1.531949
 C         2.461530        -1.262721         0.264488
 H        -0.310660        -1.450095        -0.377098
 H        -0.574149         0.388685        -0.347974
 H         0.183718        -0.563143        -1.715425
 H         2.998572         0.063378        -1.811321
 H         2.043086         1.569674        -1.631978
 H         4.299961         1.716682        -0.253394
 H         3.158333         1.510488         2.177805
 H         4.483302        -0.304873         2.329942
 H         2.825151        -1.820805        -0.635170
 H         1.956944        -2.112922         0.839735
