19
Iteration:   869charge 0 multiplicity 1
 C         0.174857        -0.640561        -0.630803
 C         1.480645        -0.030512        -0.150622
 C         2.508294         0.747747        -1.131775
 C         3.601664         0.869583        -0.023758
 C         2.818665         1.063928         1.270210
 O         1.391150         0.916018         0.988899
 C         3.525269        -0.319429         0.941659
 O         4.674468        -0.817481         1.544674
 C         2.469821        -1.154737         0.267901
 H        -0.158365        -1.430834        -0.031417
 H        -0.675078         0.072666        -0.805223
 H         0.395033        -1.058301        -1.555853
 H         2.870460         0.135269        -1.958304
 H         2.148400         1.709868        -1.603440
 H         4.477517         1.452301        -0.169732
 H         3.233568         1.707840         2.044735
 H         4.413473        -1.694333         1.837980
 H         2.785962        -1.589134        -0.650194
 H         2.047039        -2.056663         0.774225
