19
Iteration:  3661
 C         0.235935        -0.389034        -0.944006
 C         1.585672        -0.108075        -0.228936
 C         2.497902         0.875694        -0.968399
 C         3.499911         1.024090         0.153025
 C         2.647245         0.804269         1.451257
 O         1.277364         0.664053         1.029250
 C         3.511201        -0.323464         0.900524
 O         4.827138        -0.696986         1.413641
 C         2.521015        -1.309506         0.228091
 H         0.100961         0.361290        -1.763683
 H         0.357291        -1.305163        -1.421676
 H        -0.557879        -0.304268        -0.251453
 H         2.955411         0.546041        -1.871439
 H         1.847503         1.842838        -1.021111
 H         4.583234         1.492712         0.175327
 H         2.849858         1.377404         2.300359
 H         4.505726        -1.318392         2.086915
 H         3.085259        -1.866666        -0.564507
 H         2.150697        -1.942501         1.072623
