19
Iteration:  2123
 C         0.257918        -0.472194        -0.891932
 C         1.511235        -0.051549        -0.180834
 C         2.461881         0.829189        -0.989820
 C         3.577606         0.910148         0.067734
 C         2.688580         0.897029         1.412977
 O         1.347846         0.622976         1.089154
 C         3.527092        -0.291745         0.912421
 O         4.751290        -0.802319         1.457438
 C         2.450586        -1.168785         0.228970
 H         0.280085        -1.533337        -1.150969
 H        -0.643697        -0.306505        -0.327058
 H         0.095142         0.058389        -1.890247
 H         2.805906         0.433836        -2.043324
 H         2.080190         1.819583        -1.150289
 H         4.472474         1.646170         0.059885
 H         2.826032         1.680380         2.138085
 H         5.365534        -0.035935         1.427038
 H         2.907658        -1.676811        -0.589001
 H         2.059699        -1.809346         1.002950
