19
Iteration:  4347
 C         0.219213        -0.493512        -0.834030
 C         1.517130        -0.005827        -0.217817
 C         2.531893         0.907585        -1.013100
 C         3.552221         1.025750         0.085827
 C         2.675072         0.906753         1.451068
 O         1.335353         0.590491         0.980866
 C         3.562069        -0.327442         0.851953
 O         4.627166        -0.834049         1.592866
 C         2.581544        -1.223872         0.191007
 H         0.342443        -1.560310        -1.040098
 H        -0.601484        -0.159905        -0.123921
 H         0.011000         0.159357        -1.739920
 H         2.894243         0.284118        -1.915407
 H         2.131244         1.834414        -1.325996
 H         4.416205         1.775285         0.123183
 H         2.833302         1.474254         2.410046
 H         5.406728        -0.500211         1.034899
 H         3.058827        -1.733555        -0.701321
 H         1.967944        -1.914296         0.856327
