19
Iteration:  4760charge 0 multiplicity 1
 C         0.226705        -0.522925        -0.880320
 C         1.557594        -0.081037        -0.256770
 C         2.443505         0.994437        -1.012246
 C         3.495594         1.012648         0.067205
 C         2.734351         0.897925         1.447769
 O         1.394806         0.721393         1.054257
 C         3.553484        -0.282767         0.850985
 O         4.680954        -0.851469         1.536493
 C         2.569360        -1.261019         0.154415
 H        -0.338977        -0.625146         0.103491
 H        -0.325358         0.231978        -1.454161
 H         0.303505        -1.608007        -1.221081
 H         2.992152         0.645396        -1.862010
 H         1.891629         2.081204        -1.129896
 H         4.548092         1.453688         0.036439
 H         2.854025         1.488666         2.348013
 H         4.369171        -1.591045         2.088946
 H         2.996454        -1.794180        -0.733678
 H         2.069915        -2.041356         0.845982
