19
Iteration:   945charge 0 multiplicity 1
 C         0.192059        -0.362291        -0.732526
 C         1.474184        -0.076794        -0.097783
 C         2.587143         0.644424        -1.133650
 C         3.546484         0.797330        -0.023326
 C         2.764914         1.003067         1.288704
 O         1.366575         0.723196         1.042380
 C         3.452213        -0.375107         0.927332
 O         4.765193        -0.619814         1.428296
 C         2.466773        -1.296773         0.319148
 H        -0.517037        -0.945575        -0.189239
 H        -0.372969         0.674439        -0.779136
 H         0.282986        -0.665407        -1.750377
 H         2.743398         0.037929        -1.992421
 H         2.265248         1.707306        -1.484708
 H         4.452867         1.280591        -0.068411
 H         3.043525         1.786560         2.064670
 H         4.781125        -0.507953         2.448189
 H         3.008680        -1.790852        -0.456292
 H         1.937496        -1.996271         1.028259
