19
Iteration:  1564
 C         0.183056        -0.568745        -0.750672
 C         1.510945        -0.041629        -0.238823
 C         2.481790         0.768092        -1.116522
 C         3.587579         0.936425         0.002391
 C         2.763058         0.967605         1.311482
 O         1.399488         0.873081         1.004859
 C         3.519693        -0.327425         0.932958
 O         4.778243        -0.772559         1.444713
 C         2.394683        -1.203359         0.441846
 H         0.152980        -1.636151        -0.392718
 H        -0.655444         0.091854        -0.326468
 H        -0.025521        -0.628256        -1.752783
 H         2.801350         0.037937        -2.001126
 H         2.158175         1.724309        -1.512622
 H         4.646900         1.426224         0.041131
 H         3.130636         1.622195         2.109323
 H         4.788096        -1.745673         1.748488
 H         2.683765        -1.907135        -0.341166
 H         1.726767        -1.707897         1.169257
