19
Iteration:   617
 C         0.172712        -0.531705        -0.640734
 C         1.561922        -0.072644        -0.192317
 C         2.556162         0.651172        -1.110066
 C         3.575257         0.970888        -0.062463
 C         2.770584         1.007109         1.225182
 O         1.396086         0.792354         0.999970
 C         3.615846        -0.240475         0.894459
 O         4.642758        -0.844248         1.538550
 C         2.414814        -1.096820         0.291985
 H        -0.365712        -0.608369         0.277130
 H        -0.305946         0.124212        -1.309626
 H         0.254974        -1.584458        -1.120364
 H         2.932804         0.086773        -1.904480
 H         2.032997         1.550123        -1.397675
 H         4.322239         1.625925        -0.077638
 H         3.116237         1.583482         2.080807
 H         4.226934        -1.419896         2.261626
 H         2.790449        -1.840207        -0.410925
 H         1.908443        -1.686408         1.035100
