19
Iteration:  2452
 C         0.254447        -0.483183        -0.841005
 C         1.621596        -0.065909        -0.240875
 C         2.532677         0.880150        -1.020749
 C         3.504339         1.052035         0.102424
 C         2.720104         0.831554         1.373704
 O         1.367937         0.595895         1.023839
 C         3.500659        -0.248552         0.898561
 O         4.562237        -0.730173         1.605271
 C         2.569207        -1.203054         0.186843
 H        -0.257331         0.400668        -1.090438
 H         0.238324        -1.202464        -1.714096
 H        -0.264609        -1.054384        -0.047607
 H         2.882173         0.288689        -1.977413
 H         2.041316         1.798682        -1.247993
 H         4.440665         1.696767        -0.110040
 H         2.843464         1.374580         2.305664
 H         5.047703        -1.291139         1.026162
 H         2.968817        -1.790660        -0.632574
 H         2.272069        -1.981707         0.854467
