19
Iteration:  1923charge 0 multiplicity 1
 C         0.092184        -0.509720        -0.825017
 C         1.494640        -0.105328        -0.225571
 C         2.429317         0.953605        -0.969725
 C         3.514264         0.985567         0.032190
 C         2.798457         0.851818         1.340093
 O         1.417319         0.674826         1.050582
 C         3.536820        -0.259479         0.854555
 O         4.672139        -0.795388         1.618748
 C         2.643926        -1.245835         0.178864
 H        -0.676965        -0.298447        -0.016016
 H        -0.213205         0.149821        -1.659418
 H         0.109584        -1.483482        -1.173488
 H         2.861835         0.610453        -1.994943
 H         1.831348         1.851618        -1.005452
 H         4.479631         1.607629        -0.006525
 H         2.975435         1.494339         2.184490
 H         5.405900        -0.962939         1.040965
 H         2.992861        -1.855301        -0.657034
 H         2.222610        -1.991175         0.891099
