19
Iteration:   796
 C         0.102810        -0.316627        -0.832433
 C         1.471599        -0.182241        -0.136788
 C         2.438389         0.592489        -1.048405
 C         3.465774         0.875014        -0.029212
 C         2.839202         0.917625         1.321344
 O         1.433354         0.780835         1.015491
 C         3.573250        -0.300468         0.884027
 O         4.826874        -0.697938         1.515517
 C         2.472946        -1.211167         0.330587
 H        -0.824751        -0.182797        -0.158499
 H         0.080833         0.589080        -1.543461
 H        -0.160799        -1.149331        -1.479289
 H         2.868731         0.049101        -1.993945
 H         2.037779         1.481443        -1.358347
 H         4.359764         1.355693        -0.138281
 H         2.970207         1.509004         2.232986
 H         4.592897        -0.432430         2.461635
 H         2.870851        -1.798520        -0.528808
 H         2.218273        -2.001104         1.069277
