19
Iteration:  2730charge 0 multiplicity 1
 C         0.152401        -0.515041        -0.896926
 C         1.561353        -0.063245        -0.250420
 C         2.492260         0.854023        -1.037155
 C         3.503747         0.988216         0.120906
 C         2.659259         0.876457         1.420533
 O         1.350860         0.723642         0.980792
 C         3.594489        -0.291012         0.977806
 O         4.778972        -0.771850         1.561415
 C         2.558860        -1.205855         0.166467
 H        -0.169642         0.174902        -1.639898
 H         0.185624        -1.518591        -1.281671
 H        -0.620328        -0.650331        -0.076333
 H         2.871392         0.402892        -1.935397
 H         2.043198         1.899928        -1.260457
 H         4.321810         1.639793         0.041403
 H         2.882077         1.581156         2.197859
 H         4.485187        -1.568273         2.101436
 H         3.178666        -1.693690        -0.636933
 H         2.018112        -1.971027         0.731414
