19
Iteration:  3931charge 0 multiplicity 1
 C         0.186125        -0.379391        -0.882343
 C         1.526196        -0.171790        -0.167054
 C         2.557586         0.928800        -0.975099
 C         3.442204         1.038520         0.221599
 C         2.654398         0.767304         1.449815
 O         1.340980         0.609972         0.996083
 C         3.562796        -0.351786         0.859298
 O         4.780395        -0.671260         1.415695
 C         2.560994        -1.196301         0.155016
 H        -0.372218         0.611797        -0.848021
 H         0.603646        -0.755467        -1.881834
 H        -0.332721        -1.212956        -0.482082
 H         3.003573         0.435426        -1.997416
 H         1.981459         1.789298        -1.303133
 H         4.337575         1.574360         0.325818
 H         2.898308         1.314622         2.411812
 H         4.577295        -1.393160         2.094015
 H         2.851161        -1.802907        -0.706577
 H         2.164404        -1.959073         0.792387
