19
Iteration:   643charge 0 multiplicity 1
 C         0.085454        -0.349162        -0.748736
 C         1.524416        -0.122705        -0.135679
 C         2.516799         0.662970        -1.153176
 C         3.524739         0.900290        -0.055891
 C         2.814605         0.959348         1.302934
 O         1.422683         0.724529         0.995152
 C         3.554145        -0.321735         0.895077
 O         4.711008        -0.623191         1.527933
 C         2.474014        -1.276458         0.369396
 H        -0.635447        -0.834706        -0.059424
 H        -0.270632         0.709071        -1.124464
 H         0.185401        -0.899386        -1.647172
 H         2.864711        -0.175389        -1.929565
 H         2.059180         1.537253        -1.594373
 H         4.665320         1.105757        -0.099704
 H         3.141770         1.620848         2.102123
 H         4.464541        -0.935002         2.444818
 H         2.897561        -1.935939        -0.379802
 H         2.098440        -1.993647         1.157658
