19
Iteration:  1267
 C         0.235156        -0.496186        -0.698269
 C         1.530753        -0.071254        -0.191579
 C         2.534493         0.663514        -1.042787
 C         3.592777         0.908217        -0.074075
 C         2.754670         0.945857         1.378551
 O         1.398618         0.825659         1.059096
 C         3.515289        -0.225289         0.895477
 O         4.577603        -0.775850         1.471949
 C         2.444201        -1.184220         0.310558
 H        -0.354877        -1.150182        -0.098712
 H        -0.365198         0.380412        -0.950461
 H         0.359683        -1.146062        -1.675934
 H         2.887643        -0.147161        -1.836819
 H         2.160976         1.490123        -1.512223
 H         4.462205         1.614321        -0.376378
 H         3.020183         1.330815         2.335033
 H         5.410688        -0.672436         1.048226
 H         2.857682        -1.840343        -0.532283
 H         2.182958        -1.892371         1.104608
