19
Iteration:  1881
 C         0.099964        -0.368531        -0.763145
 C         1.529876        -0.115871        -0.261396
 C         2.499871         0.861585        -1.130891
 C         3.530351         1.066337         0.071664
 C         2.776109         0.843954         1.384955
 O         1.413449         0.551836         1.108562
 C         3.538861        -0.317240         0.846320
 O         4.689835        -0.770285         1.505236
 C         2.554241        -1.239063         0.226472
 H        -0.626258        -0.243886         0.052148
 H        -0.270279         0.305157        -1.480813
 H         0.009004        -1.317296        -1.213149
 H         2.947973         0.038544        -1.831027
 H         2.188830         1.724833        -1.620481
 H         4.379450         1.862136        -0.036204
 H         2.925400         1.468299         2.265916
 H         4.915096        -0.105568         2.156284
 H         2.993224        -1.805395        -0.575809
 H         2.072800        -1.971967         0.904275
