19
Iteration:  1094charge 0 multiplicity 1
 C         0.215932        -0.356070        -0.751695
 C         1.491954        -0.168487        -0.106337
 C         2.496765         0.620592        -1.020730
 C         3.527633         0.877212        -0.012766
 C         2.752060         0.989078         1.190987
 O         1.387836         0.814068         1.038235
 C         3.560595        -0.297387         0.924168
 O         4.714039        -0.720220         1.563836
 C         2.430147        -1.299320         0.311527
 H        -0.484250        -1.115373        -0.596340
 H        -0.362348         0.551999        -0.684153
 H         0.329021        -0.330015        -1.917884
 H         2.689458        -0.135370        -1.918736
 H         1.909760         1.505679        -1.465181
 H         4.329068         1.447077        -0.279205
 H         3.132003         1.657654         2.004632
 H         5.596966        -0.497048         1.178867
 H         2.954860        -1.821677        -0.584850
 H         2.108783        -1.909296         1.149568
