19
Iteration:    75
 C         0.231630        -0.342889        -0.664797
 C         1.566363        -0.138530        -0.081329
 C         2.485434         0.678085        -1.154194
 C         3.507881         0.931281        -0.063249
 C         2.744239         0.965045         1.247757
 O         1.399194         0.755042         0.932046
 C         3.539885        -0.296742         0.872793
 O         4.701520        -0.737465         1.489297
 C         2.467454        -1.239658         0.417669
 H        -0.344519        -1.186495        -0.221656
 H        -0.273630         0.581578        -0.613033
 H         0.387856        -0.771603        -1.678141
 H         2.970981        -0.018349        -1.953913
 H         1.965066         1.518760        -1.506919
 H         4.398707         1.485503        -0.094746
 H         2.996856         1.600110         2.085994
 H         4.325963        -1.018912         2.381691
 H         2.837125        -1.952760        -0.315125
 H         2.149419        -1.949177         1.200705
