19
Iteration:  3207charge 0 multiplicity 1
 C         0.222243        -0.456102        -0.841235
 C         1.597023        -0.093083        -0.323702
 C         2.543121         0.910444        -0.982136
 C         3.503912         1.056667         0.097915
 C         2.711135         0.809627         1.427841
 O         1.361926         0.558861         1.009574
 C         3.532938        -0.259711         0.835203
 O         4.682788        -0.742210         1.586670
 C         2.544418        -1.173974         0.166351
 H        -0.284623         0.305077        -1.575601
 H         0.095219        -1.354948        -1.364064
 H        -0.445442        -0.369063         0.082372
 H         3.042497         0.481396        -1.941457
 H         2.038512         1.754036        -1.291286
 H         4.359702         1.687002         0.010101
 H         2.869000         1.232692         2.451804
 H         4.454078        -1.396977         2.201265
 H         2.907404        -1.819387        -0.654639
 H         1.932919        -1.869190         0.906708
