19
Iteration:  3296
 C         0.256865        -0.568358        -0.871354
 C         1.584990        -0.064149        -0.248433
 C         2.463666         0.903274        -0.966179
 C         3.571998         1.057687         0.146881
 C         2.621745         0.914515         1.409776
 O         1.353054         0.730713         0.948880
 C         3.551625        -0.256705         0.921048
 O         4.683166        -0.856182         1.486129
 C         2.583255        -1.200268         0.197434
 H        -0.511296         0.039201        -0.409778
 H         0.234762        -0.359909        -1.965066
 H        -0.013350        -1.641323        -0.614930
 H         2.918309         0.566556        -1.949736
 H         1.921387         1.760197        -1.159184
 H         4.581474         1.451310         0.165646
 H         2.860892         1.319863         2.375999
 H         4.298920        -1.539475         1.990397
 H         2.978851        -1.912724        -0.559035
 H         2.080170        -1.858030         1.020545
