19
Iteration:  3642
 C         0.188030        -0.360418        -0.872013
 C         1.571311        -0.095949        -0.274214
 C         2.563015         0.832690        -1.017527
 C         3.511794         0.985629         0.147578
 C         2.699435         0.830796         1.404675
 O         1.325471         0.514433         1.043634
 C         3.579052        -0.328117         0.966812
 O         4.728734        -0.642598         1.494072
 C         2.533716        -1.178794         0.151633
 H        -0.203176         0.390896        -1.605386
 H        -0.010211        -1.297671        -1.360424
 H        -0.625945        -0.273069        -0.030243
 H         3.009977         0.210664        -1.750178
 H         2.186720         1.806000        -1.359821
 H         4.250580         1.805240         0.173623
 H         2.758811         1.346576         2.339100
 H         4.752366        -1.453592         1.949291
 H         2.883914        -1.558717        -0.800648
 H         1.916118        -1.914355         0.689264
