19
Iteration:  1592charge 0 multiplicity 1
 C         0.143762        -0.474792        -0.679595
 C         1.534708        -0.113888        -0.124682
 C         2.463498         0.665404        -1.078796
 C         3.635726         1.010985        -0.045410
 C         2.797415         0.936751         1.289207
 O         1.458472         0.771571         1.032031
 C         3.590291        -0.241423         0.761972
 O         4.597054        -0.735321         1.518339
 C         2.456563        -1.217927         0.302008
 H        -0.034119        -1.486341        -0.396665
 H        -0.535823         0.316148        -0.407595
 H         0.199865        -0.562768        -1.857135
 H         2.752587         0.066116        -1.899744
 H         2.028417         1.631585        -1.462008
 H         4.662976         1.368563        -0.143330
 H         3.117040         1.456596         2.171962
 H         4.249974        -1.108096         2.386785
 H         2.668265        -1.963985        -0.509236
 H         2.079633        -1.827065         1.140476
