19
Iteration:   944charge 0 multiplicity 1
 C         0.188698        -0.355228        -0.728341
 C         1.473534        -0.072771        -0.098176
 C         2.578303         0.636897        -1.134211
 C         3.542862         0.787497        -0.029980
 C         2.766297         1.004655         1.294539
 O         1.365514         0.723573         1.040103
 C         3.470032        -0.376545         0.923072
 O         4.765241        -0.619005         1.432231
 C         2.466577        -1.285772         0.319860
 H        -0.487309        -0.978476        -0.191771
 H        -0.378185         0.673041        -0.755012
 H         0.295905        -0.668127        -1.802110
 H         2.760112         0.056756        -1.954930
 H         2.276950         1.710080        -1.507345
 H         4.440339         1.269313        -0.027066
 H         2.996865         1.790131         2.067598
 H         4.728376        -0.521847         2.433009
 H         3.007028        -1.821692        -0.457376
 H         1.971135        -2.005368         1.002762
