19
Iteration:  2485
 C         0.246218        -0.671914        -0.850077
 C         1.521247        -0.011114        -0.248834
 C         2.578284         0.970353        -0.972934
 C         3.547737         1.072373         0.131735
 C         2.617300         0.895699         1.390348
 O         1.288951         0.705599         0.974919
 C         3.615956        -0.304308         0.879103
 O         4.736756        -0.836098         1.551127
 C         2.522645        -1.183088         0.176161
 H        -0.249066        -0.027801        -1.509921
 H         0.451506        -1.689584        -1.275216
 H        -0.339518        -0.601127         0.059165
 H         2.861305         0.624416        -2.083019
 H         2.033857         1.867955        -1.123398
 H         4.401646         1.845489         0.135805
 H         2.866574         1.491461         2.274740
 H         4.360778        -1.770530         1.643203
 H         2.772443        -1.774362        -0.713740
 H         2.175852        -1.845966         1.039212
