19
Iteration:  4680charge 0 multiplicity 1
 C         0.233381        -0.378958        -0.863373
 C         1.562865        -0.080709        -0.231720
 C         2.576026         0.794399        -0.956756
 C         3.538483         1.164093         0.214017
 C         2.620056         0.964397         1.367924
 O         1.242232         0.647523         0.977418
 C         3.611262        -0.344525         0.865453
 O         4.763537        -0.879861         1.347229
 C         2.518572        -1.302173         0.343150
 H         0.086045        -1.441831        -0.827884
 H        -0.651408         0.101753        -0.343855
 H         0.173034        -0.087082        -1.915970
 H         2.904734         0.387286        -1.918601
 H         2.072537         1.718305        -1.353607
 H         4.485740         1.579737         0.323700
 H         2.609909         1.611008         2.247600
 H         4.894718        -0.808083         2.288341
 H         2.814403        -1.811759        -0.602557
 H         2.127981        -2.091070         0.967778
