19
Iteration:  3124charge 0 multiplicity 1
 C         0.221662        -0.377512        -0.935690
 C         1.534661        -0.056400        -0.292641
 C         2.562415         0.792313        -0.988387
 C         3.603353         1.010232         0.086281
 C         2.675004         0.864029         1.395711
 O         1.297968         0.533147         1.088046
 C         3.573214        -0.327630         0.871023
 O         4.780319        -0.705883         1.518924
 C         2.416753        -1.185320         0.228207
 H        -0.423402         0.421087        -0.931254
 H         0.382941        -0.712520        -2.029140
 H        -0.170011        -1.307772        -0.427968
 H         2.899172         0.265996        -1.895025
 H         2.154395         1.855219        -1.298329
 H         4.342778         1.699618         0.150174
 H         2.803375         1.488950         2.313482
 H         4.545740        -0.753463         2.491255
 H         2.770305        -1.881155        -0.547301
 H         1.938134        -1.710152         1.016533
