19
Iteration:  2258
 C         0.211104        -0.427887        -0.885173
 C         1.549656        -0.108162        -0.293431
 C         2.540998         0.786558        -1.069304
 C         3.544269         1.029869         0.084025
 C         2.665016         0.872194         1.466129
 O         1.354615         0.614733         1.074178
 C         3.502814        -0.273498         0.922270
 O         4.728003        -0.689149         1.425184
 C         2.528760        -1.211304         0.307455
 H         0.199997         0.080359        -1.837247
 H         0.260772        -1.516833        -1.037059
 H        -0.585139        -0.100295        -0.296222
 H         2.955287         0.180258        -1.842128
 H         2.009333         1.691297        -1.311731
 H         4.381770         1.658672         0.017420
 H         2.877902         1.481137         2.347270
 H         4.656081        -1.541118         1.900873
 H         3.130609        -1.844092        -0.375466
 H         1.817644        -1.665313         0.989253
