19
Iteration:   491
 C         0.064636        -0.490376        -0.749279
 C         1.511025        -0.100925        -0.218738
 C         2.549083         0.682458        -1.144891
 C         3.598045         0.839983        -0.063838
 C         2.824217         0.942300         1.311498
 O         1.461476         0.857828         1.002207
 C         3.525882        -0.335267         0.879842
 O         4.728829        -0.638476         1.551287
 C         2.380601        -1.257292         0.390587
 H        -0.277476        -1.454088        -0.394468
 H        -0.599174         0.347755        -0.214971
 H         0.086113        -0.551135        -1.786346
 H         2.904728        -0.023072        -1.993052
 H         2.249695         1.636990        -1.571321
 H         4.470454         1.366875        -0.143710
 H         3.215176         1.684155         1.999841
 H         4.419290        -1.007556         2.413667
 H         2.763887        -1.910860        -0.389645
 H         1.824283        -1.717871         1.286575
