19
Iteration:  1105charge 0 multiplicity 1
 C         0.106800        -0.389560        -0.819110
 C         1.456870        -0.101799        -0.076347
 C         2.456664         0.598287        -1.020796
 C         3.597816         0.883881        -0.043620
 C         2.773111         0.977740         1.272726
 O         1.360152         0.806672         0.964566
 C         3.593169        -0.306240         0.889176
 O         4.782366        -0.767904         1.576909
 C         2.453247        -1.213969         0.390139
 H        -0.341232        -1.304943        -0.540471
 H        -0.492116         0.483719        -0.601148
 H         0.436767        -0.458968        -1.915507
 H         2.699595        -0.174827        -1.862680
 H         2.194181         1.605079        -1.472192
 H         4.434259         1.504957        -0.117166
 H         2.958830         1.575992         2.187457
 H         5.490470        -0.205706         1.120010
 H         2.568931        -1.754973        -0.612700
 H         2.054248        -2.028119         0.983584
