19
Iteration:  4896charge 0 multiplicity 1
 C         0.180649        -0.515481        -0.631114
 C         1.556281        -0.034944        -0.286614
 C         2.634298         0.902631        -1.086192
 C         3.616447         0.999981         0.043599
 C         2.683528         0.916237         1.376588
 O         1.334228         0.679888         0.958616
 C         3.524134        -0.258608         0.892496
 O         4.624357        -0.873750         1.494863
 C         2.555966        -1.224786         0.235952
 H        -0.044971        -1.525629        -0.386250
 H        -0.587748         0.107802        -0.149235
 H         0.009701        -0.484457        -1.701782
 H         2.954523         0.434584        -2.123673
 H         2.204365         1.767350        -1.532472
 H         4.286236         1.917662         0.343602
 H         2.884776         1.609911         2.246444
 H         4.156966        -1.251985         2.331666
 H         3.165572        -1.559113        -0.644455
 H         2.156942        -2.093320         0.747595
