19
Iteration:  1356charge 0 multiplicity 1
 C         0.107634        -0.367110        -0.693047
 C         1.511193        -0.061903        -0.230063
 C         2.483545         0.620764        -1.129555
 C         3.531910         0.999453        -0.010607
 C         2.797224         0.850811         1.271798
 O         1.402528         0.732408         1.060212
 C         3.604640        -0.275302         0.813563
 O         4.738716        -0.701171         1.558182
 C         2.476873        -1.233090         0.310613
 H        -0.308848        -1.188739        -0.123534
 H        -0.504711         0.617235        -0.655314
 H         0.161179        -0.707498        -1.737565
 H         2.961077        -0.235180        -1.739350
 H         2.174650         1.397882        -1.737637
 H         4.403471         1.550733        -0.204938
 H         3.136203         1.446195         2.151947
 H         4.445781        -0.898710         2.428358
 H         2.524839        -1.891059        -0.581295
 H         2.132740        -1.745333         1.239362
