19
Iteration:  2134charge 0 multiplicity 1
 C         0.193967        -0.423498        -0.899891
 C         1.529199        -0.121202        -0.202245
 C         2.485313         0.893962        -0.943216
 C         3.521545         0.918800         0.050897
 C         2.734741         0.911374         1.335463
 O         1.353235         0.613680         1.072326
 C         3.543298        -0.282391         0.978159
 O         4.725609        -0.739000         1.530592
 C         2.499223        -1.271184         0.224006
 H         0.182221        -1.472033        -1.193536
 H        -0.588516        -0.268334        -0.163910
 H         0.033964         0.277638        -1.791594
 H         2.806781         0.330213        -1.938541
 H         1.959223         1.770455        -1.179308
 H         4.408882         1.672217         0.101188
 H         3.007577         1.629589         2.076659
 H         5.497693        -0.444971         0.890975
 H         2.888351        -1.669513        -0.695627
 H         1.988992        -2.093764         0.671401
