19
Iteration:   711
 C         0.217327        -0.515115        -0.715397
 C         1.521796        -0.094674        -0.139486
 C         2.514902         0.610602        -1.092473
 C         3.611558         0.980874        -0.061750
 C         2.799758         1.064716         1.321155
 O         1.389756         0.851612         1.028477
 C         3.531672        -0.265451         0.830387
 O         4.672198        -0.834510         1.515823
 C         2.420467        -1.195909         0.333002
 H         0.035770        -1.572474        -0.334275
 H        -0.445656         0.246456        -0.364171
 H         0.340652        -0.524469        -1.818194
 H         2.932407        -0.072291        -1.889701
 H         1.980758         1.457669        -1.679156
 H         4.456306         1.548325        -0.189691
 H         2.946043         1.883053         2.024774
 H         4.258227        -1.331778         2.198022
 H         2.705663        -1.885267        -0.533378
 H         1.930026        -1.792040         1.101060
