19
Iteration:  3213charge 0 multiplicity 1
 C         0.242982        -0.402035        -0.821206
 C         1.584295        -0.085567        -0.300242
 C         2.481060         0.886136        -0.996751
 C         3.504227         1.031658         0.173644
 C         2.715817         0.843623         1.403168
 O         1.332113         0.563006         0.967053
 C         3.544202        -0.267502         0.815623
 O         4.697918        -0.724310         1.573122
 C         2.563248        -1.264549         0.174443
 H         0.022962         0.424489        -1.472514
 H         0.119252        -1.337146        -1.454863
 H        -0.409595        -0.353057         0.010341
 H         3.080720         0.558373        -1.798505
 H         1.833308         1.859119        -1.241801
 H         4.483385         1.610199        -0.104236
 H         2.866915         1.172040         2.409568
 H         4.417652        -1.317479         2.318839
 H         2.975716        -1.856109        -0.660250
 H         2.037947        -1.838866         0.893083
