19
Iteration:  2280
 C         0.192917        -0.360138        -0.838034
 C         1.508808        -0.185638        -0.163039
 C         2.533253         0.799285        -0.965522
 C         3.494212         0.986391         0.133805
 C         2.660859         0.921749         1.323123
 O         1.304518         0.662591         0.941668
 C         3.535071        -0.345791         0.887757
 O         4.799978        -0.731613         1.481469
 C         2.581496        -1.273881         0.206235
 H         0.070810         0.368399        -1.650014
 H         0.108358        -1.413108        -1.150888
 H        -0.499412        -0.149262        -0.084125
 H         3.044289         0.206603        -1.674930
 H         1.997793         1.720987        -1.190131
 H         4.360814         1.653743         0.169821
 H         2.875845         1.474322         2.217654
 H         4.733801        -0.440876         2.451034
 H         2.868772        -1.521816        -0.827623
 H         2.224920        -2.061559         0.880262
