19
Iteration:   789
 C         0.111438        -0.322106        -0.799496
 C         1.475743        -0.158408        -0.105612
 C         2.469932         0.585433        -1.073469
 C         3.550460         0.904169        -0.026696
 C         2.747198         0.845102         1.319549
 O         1.391266         0.824233         1.025254
 C         3.606166        -0.321820         0.836720
 O         4.780710        -0.681917         1.509559
 C         2.513798        -1.226923         0.335129
 H        -0.680647        -0.264488        -0.024739
 H         0.027335         0.494677        -1.430351
 H         0.133159        -1.316270        -1.403229
 H         2.807896        -0.012076        -1.868937
 H         2.040681         1.645020        -1.338576
 H         4.520312         1.380971        -0.247966
 H         3.071147         1.561342         2.086179
 H         4.506752        -0.558106         2.426983
 H         2.598172        -1.716381        -0.691616
 H         2.069953        -1.913404         1.030814
