19
Iteration:  2323
 C         0.268758        -0.537490        -0.742656
 C         1.599095        -0.038582        -0.240461
 C         2.499268         0.905331        -1.057646
 C         3.556193         1.033271         0.044914
 C         2.750069         0.899187         1.265135
 O         1.385832         0.570585         1.061453
 C         3.566180        -0.261928         0.834286
 O         4.530441        -0.803489         1.661049
 C         2.478512        -1.214915         0.204020
 H        -0.369176         0.353301        -1.026991
 H         0.475073        -1.031774        -1.744286
 H        -0.369003        -1.164482        -0.120728
 H         2.892412         0.392929        -1.969870
 H         2.032443         1.870231        -1.209475
 H         4.433245         1.735855        -0.061484
 H         2.855829         1.427644         2.181266
 H         5.408792        -0.533705         1.209981
 H         2.990793        -1.799070        -0.565000
 H         1.903542        -1.706536         0.993321
