19
Iteration:  3159charge 0 multiplicity 1
 C         0.362290        -0.571190        -0.846680
 C         1.592307        -0.098833        -0.270550
 C         2.460689         0.850967        -0.969155
 C         3.562606         1.048379         0.188546
 C         2.664637         0.857809         1.408442
 O         1.352587         0.799917         0.973126
 C         3.508691        -0.249123         0.939009
 O         4.653870        -0.862951         1.434120
 C         2.528808        -1.207838         0.196783
 H        -0.148929         0.223553        -1.396394
 H         0.481521        -1.435360        -1.581344
 H        -0.306466        -0.816947        -0.047315
 H         2.838121         0.708558        -1.927756
 H         1.756017         1.818537        -0.996792
 H         4.355101         1.895140         0.014500
 H         2.829666         1.457203         2.261010
 H         4.410643        -1.433999         2.241616
 H         3.040065        -1.689578        -0.708769
 H         2.020059        -2.035668         0.794935
