19
Iteration:  3477
 C         0.284711        -0.434524        -0.835791
 C         1.539182        -0.107602        -0.201011
 C         2.475789         0.865145        -1.036328
 C         3.522843         1.001534         0.125003
 C         2.789056         0.772952         1.403759
 O         1.399810         0.695626         1.008919
 C         3.552038        -0.295105         0.803177
 O         4.620226        -0.691022         1.617127
 C         2.541329        -1.259055         0.107415
 H        -0.325233         0.462161        -1.198200
 H         0.363804        -1.100904        -1.668134
 H        -0.512952        -0.966395        -0.245335
 H         2.691825         0.388984        -1.933533
 H         1.999093         1.870644        -1.224198
 H         4.164330         1.898746         0.190811
 H         2.884162         1.291237         2.396787
 H         4.393116        -1.538362         2.148001
 H         2.873352        -1.708247        -0.799000
 H         2.231807        -1.945427         0.851940
