19
Iteration:  3912charge 0 multiplicity 1
 C         0.217787        -0.354144        -0.826768
 C         1.592126        -0.076724        -0.323501
 C         2.460481         0.930923        -0.946070
 C         3.552160         1.076016         0.130250
 C         2.701208         0.802534         1.417806
 O         1.301233         0.498267         1.062112
 C         3.591755        -0.312956         0.814688
 O         4.702507        -0.681777         1.543108
 C         2.590178        -1.289859         0.133196
 H        -0.245734         0.583422        -1.178148
 H        -0.019992        -0.884964        -1.791286
 H        -0.396358        -0.810386        -0.083761
 H         2.713677         0.549741        -1.919306
 H         1.904387         1.775165        -1.177587
 H         4.319718         1.923913        -0.021831
 H         2.916542         1.133063         2.418164
 H         4.530584        -1.522914         2.101514
 H         3.111932        -1.815353        -0.663508
 H         2.178336        -2.063095         0.767748
