19
Iteration:  2165
 C         0.163987        -0.364408        -0.723431
 C         1.580195        -0.138090        -0.236896
 C         2.491576         0.852872        -1.051247
 C         3.504197         1.051502         0.070814
 C         2.708031         0.736509         1.397215
 O         1.368561         0.594313         0.970490
 C         3.638760        -0.265291         0.766174
 O         4.672278        -0.652214         1.600418
 C         2.566281        -1.232407         0.197218
 H         0.156834        -1.241076        -1.513434
 H        -0.424537        -0.642524         0.159005
 H        -0.257159         0.574611        -1.286290
 H         2.948537         0.185019        -1.798808
 H         1.951065         1.691770        -1.289585
 H         4.338660         1.834790         0.057332
 H         2.882311         1.205106         2.339984
 H         4.495785        -1.576410         1.730849
 H         2.869859        -1.767101        -0.678699
 H         2.090428        -1.779534         1.035060
