19
Iteration:  4953charge 0 multiplicity 1
 C         0.237290        -0.391713        -0.951327
 C         1.505551        -0.106614        -0.160305
 C         2.500811         0.733908        -1.010571
 C         3.561219         0.946490         0.040881
 C         2.752435         0.887433         1.316780
 O         1.370639         0.662840         1.099494
 C         3.517079        -0.328018         0.876173
 O         4.746149        -0.689930         1.428999
 C         2.452187        -1.182590         0.396479
 H        -0.086308        -1.418852        -1.162156
 H        -0.538437         0.303542        -0.703869
 H         0.564619         0.088817        -1.916662
 H         2.866553         0.098556        -1.932521
 H         1.948431         1.611924        -1.132347
 H         4.509053         1.464656        -0.059036
 H         2.912701         1.522250         2.164162
 H         4.549533        -1.105769         2.269247
 H         2.600928        -1.907038        -0.422269
 H         2.026011        -1.687884         1.272362
