19
Iteration:  2757charge 0 multiplicity 1
 C         0.337231        -0.616468        -0.839482
 C         1.580026        -0.013332        -0.180598
 C         2.575381         0.921094        -1.009061
 C         3.565415         1.092748         0.135371
 C         2.657417         0.912764         1.353045
 O         1.341963         0.684875         1.043325
 C         3.536472        -0.251599         0.825172
 O         4.611813        -0.851817         1.435733
 C         2.459487        -1.179424         0.241188
 H        -0.276546        -0.079958        -1.669346
 H         0.635061        -1.704941        -1.266137
 H        -0.363988        -0.941764        -0.037226
 H         2.976223         0.261729        -1.855232
 H         2.195102         1.860195        -1.413427
 H         4.634150         1.607598         0.090267
 H         2.861292         1.393509         2.308072
 H         4.282361        -1.123256         2.356526
 H         2.882568        -1.867546        -0.455772
 H         1.911622        -1.872351         0.895052
