19
Iteration:   854charge 0 multiplicity 1
 C         0.134066        -0.572446        -0.684040
 C         1.497630        -0.031950        -0.169113
 C         2.532968         0.695820        -1.045230
 C         3.534779         1.030884        -0.009535
 C         2.822556         0.917894         1.285887
 O         1.464171         0.927392         0.955293
 C         3.494994        -0.293756         0.856235
 O         4.719990        -0.796249         1.513430
 C         2.437129        -1.260182         0.303192
 H        -0.397566        -1.092440         0.184181
 H        -0.569753         0.142613        -1.045243
 H         0.341740        -1.386083        -1.557271
 H         2.846013         0.056542        -1.850250
 H         2.035685         1.647805        -1.482744
 H         4.619945         1.442650        -0.132784
 H         2.844361         1.582414         2.140114
 H         4.550115        -1.442362         2.194805
 H         2.886159        -1.845650        -0.600075
 H         1.990273        -1.781490         1.125947
