19
Iteration:    50charge 0 multiplicity 1
 C         0.021501        -0.649252        -0.771628
 C         1.524222        -0.060645        -0.260772
 C         2.513295         0.714608        -1.098527
 C         3.647196         0.951984        -0.034282
 C         2.841313         1.090814         1.221496
 O         1.432677         0.802523         1.035481
 C         3.590778        -0.222396         0.986712
 O         4.701599        -0.872577         1.487015
 C         2.432318        -1.074906         0.407546
 H        -0.187188        -1.614656        -0.209082
 H        -0.760738         0.105409        -0.556172
 H        -0.017110        -1.115685        -1.820808
 H         2.903931         0.061297        -1.942457
 H         2.089498         1.689049        -1.418766
 H         4.517777         1.760679        -0.164838
 H         3.117042         1.653525         2.079723
 H         4.278514        -1.580734         2.047756
 H         2.800815        -2.043140        -0.071785
 H         1.808023        -1.543236         1.214464
