19
Iteration:   354charge 0 multiplicity 1
 C         0.170308        -0.360049        -0.730303
 C         1.575926        -0.157273        -0.198895
 C         2.463491         0.674080        -1.114635
 C         3.558904         0.954447        -0.123800
 C         2.762338         0.952848         1.290777
 O         1.370085         0.759196         0.957173
 C         3.563007        -0.297113         0.901963
 O         4.741704        -0.796979         1.537278
 C         2.489926        -1.195272         0.452126
 H        -0.540674        -0.121181         0.126722
 H        -0.082940         0.336544        -1.454963
 H        -0.176419        -1.376356        -1.075387
 H         2.848789         0.043226        -1.896067
 H         1.900788         1.620003        -1.463141
 H         4.367092         1.567023        -0.317516
 H         3.048757         1.644114         2.084175
 H         4.571692        -1.097941         2.424956
 H         2.867486        -1.904017        -0.308363
 H         1.944714        -1.723650         1.164765
