19
Iteration:  3688
 C         0.339706        -0.538932        -1.016529
 C         1.552454        -0.067546        -0.227042
 C         2.474674         0.930426        -0.934564
 C         3.523889         1.045881         0.141237
 C         2.672845         0.848930         1.411845
 O         1.361505         0.654926         1.115704
 C         3.526066        -0.274754         0.900491
 O         4.758405        -0.850040         1.363513
 C         2.420806        -1.178405         0.247086
 H        -0.084612         0.258938        -1.665709
 H         0.620695        -1.431503        -1.713947
 H        -0.616253        -0.760716        -0.318700
 H         2.862754         0.511224        -1.910360
 H         1.949492         1.820325        -0.967214
 H         4.317493         1.723470         0.233727
 H         2.929873         1.421118         2.364115
 H         4.613951        -0.817345         2.330426
 H         2.889510        -1.841017        -0.459097
 H         2.012833        -1.710298         1.094083
