19
Iteration:    93charge 0 multiplicity 1
 C         0.122478        -0.305945        -0.769921
 C         1.502474        -0.174321        -0.202941
 C         2.481853         0.580803        -1.029357
 C         3.567114         0.896682        -0.033830
 C         2.810733         0.918629         1.305911
 O         1.444052         0.816254         1.016880
 C         3.486982        -0.353433         0.912739
 O         4.740089        -0.562857         1.509760
 C         2.475405        -1.357192         0.298693
 H        -0.608802        -0.831687        -0.072325
 H        -0.210286         0.754209        -0.893930
 H         0.040320        -0.958856        -1.717851
 H         2.826110        -0.088870        -1.851103
 H         1.992980         1.511121        -1.438355
 H         4.566208         1.451481        -0.363363
 H         3.061942         1.508301         2.141814
 H         4.737206        -0.539544         2.517561
 H         2.854107        -1.992286        -0.594437
 H         1.971893        -2.081545         0.997862
