19
Iteration:  4451
 C         0.180950        -0.368406        -0.757030
 C         1.540413        -0.126268        -0.311532
 C         2.519459         0.872393        -1.079309
 C         3.625934         0.916766         0.047378
 C         2.721208         0.846219         1.352845
 O         1.372267         0.625655         0.980863
 C         3.544276        -0.298534         0.885079
 O         4.661109        -0.622276         1.672003
 C         2.518480        -1.305934         0.167848
 H        -0.136085        -0.022544        -1.750922
 H        -0.056328        -1.446064        -0.690458
 H        -0.456310         0.193100        -0.121929
 H         2.923915         0.423366        -1.933610
 H         2.032094         1.914294        -1.220579
 H         4.411744         1.657270        -0.082590
 H         3.034926         1.387704         2.285321
 H         4.561114        -1.401649         2.258459
 H         2.870759        -1.888620        -0.738903
 H         2.011906        -2.060271         0.814848
