19
Iteration:   279charge 0 multiplicity 1
 C         0.172709        -0.418244        -0.679712
 C         1.544460        -0.188291        -0.232334
 C         2.522470         0.666743        -1.027657
 C         3.612898         0.966404        -0.065576
 C         2.814808         0.970729         1.234887
 O         1.399634         0.881579         0.918398
 C         3.489553        -0.350096         0.861630
 O         4.697886        -0.711982         1.530624
 C         2.420307        -1.302488         0.414746
 H        -0.362034        -1.360425        -0.320169
 H        -0.300099         0.357712        -0.219445
 H        -0.023595        -0.541779        -1.801852
 H         2.968668         0.149144        -1.904180
 H         2.041453         1.631743        -1.362154
 H         4.482413         1.441567        -0.246536
 H         3.133648         1.593262         2.127205
 H         4.430127        -1.015653         2.457369
 H         2.795611        -2.087228        -0.324131
 H         1.889382        -1.768532         1.257601
