19
Iteration:  4470charge 0 multiplicity 1
 C         0.085121        -0.439419        -0.718260
 C         1.557869        -0.044798        -0.267142
 C         2.661737         0.827246        -1.047441
 C         3.565372         0.949247         0.108419
 C         2.686106         0.870289         1.350318
 O         1.306944         0.678944         0.932323
 C         3.530500        -0.360335         0.913052
 O         4.702908        -0.660063         1.579327
 C         2.565151        -1.215850         0.135821
 H        -0.092549        -0.117784        -1.752639
 H         0.002097        -1.491422        -0.662698
 H        -0.516367         0.047916         0.041362
 H         2.942733         0.294013        -1.965007
 H         2.255311         1.696120        -1.366797
 H         4.547626         1.287190         0.107302
 H         2.752261         1.435080         2.293703
 H         4.508844        -1.465665         2.175484
 H         3.094974        -1.817642        -0.591711
 H         2.062688        -1.954807         0.762568
