19
Iteration:  2164
 C         0.162532        -0.357049        -0.726934
 C         1.574626        -0.140792        -0.238365
 C         2.490542         0.847041        -1.052866
 C         3.502175         1.048919         0.069801
 C         2.706566         0.733446         1.404800
 O         1.372974         0.598675         0.967143
 C         3.637159        -0.255210         0.771557
 O         4.672338        -0.650780         1.600752
 C         2.571497        -1.235306         0.196407
 H         0.167057        -1.265060        -1.511936
 H        -0.427509        -0.616531         0.151916
 H        -0.229943         0.557756        -1.300496
 H         2.945333         0.216147        -1.785011
 H         1.877828         1.707622        -1.291578
 H         4.331786         1.774078         0.056700
 H         2.893869         1.202156         2.359162
 H         4.560670        -1.619519         1.711439
 H         2.863717        -1.781972        -0.701556
 H         2.092470        -1.786325         1.060312
