19
Iteration:  3267
 C         0.271042        -0.445942        -0.952605
 C         1.528495        -0.002119        -0.203587
 C         2.556475         0.862006        -1.026291
 C         3.502557         1.069464         0.117068
 C         2.669466         0.832396         1.396544
 O         1.379516         0.577177         1.070046
 C         3.520836        -0.274432         0.898679
 O         4.734432        -0.768896         1.467109
 C         2.442786        -1.268224         0.245243
 H        -0.452513         0.323550        -0.810251
 H         0.556194        -0.594190        -2.080030
 H        -0.087462        -1.404035        -0.619705
 H         3.041391         0.302631        -1.816504
 H         1.990671         1.801487        -1.463615
 H         4.488196         1.743449         0.257216
 H         2.934605         1.375642         2.311452
 H         4.622419        -0.783312         2.436763
 H         2.749384        -1.920199        -0.578123
 H         1.971316        -1.814674         0.996154
