19
Iteration:  4205
 C         0.247518        -0.437605        -0.959480
 C         1.565244        -0.070423        -0.180581
 C         2.412189         0.995043        -0.942647
 C         3.546795         1.060759         0.103906
 C         2.709209         0.854824         1.455571
 O         1.337983         0.452383         1.091139
 C         3.574670        -0.286845         0.852387
 O         4.736365        -0.793533         1.498076
 C         2.518719        -1.224796         0.068086
 H        -0.623029         0.090788        -0.505251
 H         0.365266        -0.054969        -2.017355
 H        -0.081701        -1.465031        -1.007899
 H         2.826676         0.833754        -2.022565
 H         1.886046         1.863965        -0.844032
 H         4.367025         1.635139         0.038933
 H         2.921203         1.266009         2.449950
 H         4.664807        -0.498647         2.480028
 H         2.937555        -1.810721        -0.773572
 H         2.193647        -1.861766         0.935931
