19
Iteration:  4338charge 0 multiplicity 1
 C         0.210173        -0.439376        -0.854107
 C         1.586065        -0.035229        -0.246998
 C         2.481878         0.890376        -1.038703
 C         3.515352         1.079968         0.111568
 C         2.776032         0.847811         1.366398
 O         1.337742         0.554035         1.072834
 C         3.544152        -0.324111         0.938108
 O         4.616934        -0.769563         1.648885
 C         2.550616        -1.223558         0.136789
 H         0.090227        -1.487465        -1.044725
 H        -0.635292        -0.174978        -0.249637
 H         0.139973        -0.034710        -1.895670
 H         2.876275         0.327440        -1.943337
 H         2.034232         1.761435        -1.329983
 H         4.444941         1.696400        -0.236768
 H         3.001676         1.459139         2.259576
 H         5.446737        -0.887079         1.072094
 H         2.964052        -1.539810        -0.825462
 H         1.922724        -1.982955         0.636363
