19
Iteration:  3880
 C         0.167357        -0.476182        -0.820782
 C         1.545576        -0.035471        -0.247732
 C         2.466001         1.032647        -0.968093
 C         3.521059         1.073458         0.144844
 C         2.705387         0.850128         1.416563
 O         1.343901         0.545135         1.053409
 C         3.620356        -0.364194         0.807454
 O         4.674289        -0.802005         1.562958
 C         2.640250        -1.244908         0.048755
 H        -0.105031         0.382920        -1.418934
 H         0.402268        -1.431040        -1.276761
 H        -0.616872        -0.568064        -0.079541
 H         2.703891         0.522906        -1.822989
 H         1.927056         1.943338        -1.223403
 H         4.281314         1.899686        -0.011053
 H         2.862799         1.391578         2.345961
 H         4.310052        -1.074721         2.378399
 H         3.162569        -1.524480        -0.880263
 H         2.328838        -2.220326         0.485181
