19
Iteration:  2837
 C         0.290165        -0.279249        -0.820644
 C         1.614970        -0.190608        -0.250061
 C         2.489803         0.766359        -1.091588
 C         3.528739         1.028954         0.122910
 C         2.715976         0.809730         1.450333
 O         1.424384         0.620230         0.933668
 C         3.495407        -0.308405         0.869996
 O         4.613955        -0.567750         1.561548
 C         2.503715        -1.330663         0.206752
 H        -0.503362         0.378650        -0.296511
 H         0.174274        -0.084094        -1.818684
 H        -0.209166        -1.218603        -0.605851
 H         3.080965         0.177751        -1.843354
 H         2.051989         1.568758        -1.509467
 H         4.352023         1.489328        -0.162299
 H         2.838749         1.238360         2.475321
 H         4.482626        -1.239734         2.321675
 H         3.000584        -2.019160        -0.540631
 H         1.992633        -1.836020         1.128145
