19
Iteration:   808charge 0 multiplicity 1
 C         0.070621        -0.253908        -0.865970
 C         1.497480        -0.156447        -0.198163
 C         2.402986         0.682180        -1.076203
 C         3.560100         0.922319        -0.037988
 C         2.822757         1.011646         1.286992
 O         1.442369         0.663224         1.029640
 C         3.533509        -0.311182         0.989253
 O         4.802424        -0.705488         1.495493
 C         2.470055        -1.355738         0.394601
 H        -0.732004        -0.154156        -0.022726
 H        -0.052838         0.587219        -1.584947
 H         0.044355        -1.268155        -1.376641
 H         2.790388        -0.004839        -1.924840
 H         1.858555         1.486219        -1.469722
 H         4.317225         1.532464        -0.332574
 H         3.105045         1.662030         2.138715
 H         5.000396        -0.534519         2.394424
 H         3.071665        -1.930118        -0.371250
 H         1.932990        -1.926443         1.165532
