19
Iteration:  4684charge 0 multiplicity 1
 C         0.200294        -0.343143        -0.845068
 C         1.561669        -0.086821        -0.213393
 C         2.589843         0.786094        -0.952095
 C         3.496296         1.118728         0.217779
 C         2.626599         0.940950         1.379720
 O         1.282151         0.627875         0.945793
 C         3.604711        -0.321989         0.867079
 O         4.748585        -0.873536         1.355486
 C         2.547525        -1.285238         0.318183
 H        -0.053745        -1.442632        -0.857853
 H        -0.560563         0.181629        -0.278867
 H         0.263054        -0.121760        -1.962933
 H         2.854872         0.315028        -1.870213
 H         2.095655         1.774080        -1.395204
 H         4.425460         1.744104         0.309035
 H         2.587230         1.715034         2.197345
 H         4.845702        -0.694665         2.344853
 H         2.831293        -1.822374        -0.630616
 H         2.234100        -2.184041         0.981051
