19
Iteration:  1583charge 0 multiplicity 1
 C         0.264844        -0.520675        -0.638483
 C         1.470798        -0.074427        -0.105061
 C         2.551664         0.689717        -1.070979
 C         3.617233         0.963551        -0.028443
 C         2.814953         0.935044         1.294708
 O         1.426974         0.781172         1.007524
 C         3.472507        -0.296336         0.736899
 O         4.637168        -0.704926         1.479912
 C         2.404580        -1.197187         0.331502
 H        -0.029602        -1.518305        -0.396954
 H        -0.653430         0.094224        -0.408715
 H         0.350435        -0.386888        -1.759830
 H         3.025724         0.141219        -1.938123
 H         2.144117         1.586613        -1.380367
 H         4.581058         1.573197        -0.293776
 H         3.092892         1.464133         2.190003
 H         4.190662        -1.406526         2.066096
 H         2.576909        -1.945169        -0.476144
 H         2.075765        -1.567055         1.283052
