19
Iteration:   368
 C         0.041071        -0.311807        -0.760363
 C         1.493091        -0.150712        -0.270216
 C         2.552300         0.651216        -1.086694
 C         3.573206         0.810644         0.009808
 C         2.768234         1.017390         1.187482
 O         1.415078         0.706104         1.051354
 C         3.585289        -0.285488         0.957128
 O         4.813966        -0.661958         1.518472
 C         2.405199        -1.305699         0.344552
 H        -0.639013         0.004842         0.070184
 H        -0.122366         0.404163        -1.576398
 H        -0.139607        -1.418146        -1.040394
 H         2.796992         0.230083        -2.152552
 H         2.166737         1.624106        -1.338049
 H         4.533561         1.491929        -0.049115
 H         2.943528         1.774801         1.897245
 H         4.528166        -0.864934         2.467209
 H         2.824931        -2.076594        -0.339864
 H         1.967374        -1.741784         1.288887
