19
Iteration:  1010charge 0 multiplicity 1
 C         0.190790        -0.627537        -0.684534
 C         1.578461        -0.058697        -0.184638
 C         2.490655         0.753850        -1.081828
 C         3.567050         0.952306        -0.018743
 C         2.809844         1.076153         1.293454
 O         1.441684         0.768231         1.033054
 C         3.513278        -0.223485         0.906803
 O         4.604454        -0.813919         1.510838
 C         2.471009        -1.165041         0.267080
 H        -0.494257        -0.634951         0.168663
 H        -0.219106         0.076135        -1.504475
 H         0.311186        -1.657589        -0.989568
 H         2.684797         0.214979        -1.920084
 H         2.047550         1.762818        -1.377405
 H         4.537725         1.377467        -0.282338
 H         3.226527         1.780151         2.050193
 H         4.307570        -1.718198         1.723147
 H         2.845681        -1.752043        -0.539225
 H         2.100605        -1.954714         0.928882
