19
Iteration:   661charge 0 multiplicity 1
 C         0.156833        -0.273329        -0.757920
 C         1.560036        -0.190622        -0.226735
 C         2.471090         0.604966        -0.999991
 C         3.575001         0.832131        -0.053544
 C         2.745058         0.899486         1.243942
 O         1.391933         0.809756         0.930683
 C         3.576709        -0.351046         0.927318
 O         4.812742        -0.586075         1.535820
 C         2.362619        -1.339977         0.380464
 H        -0.415092        -0.964593        -0.212549
 H        -0.139786         0.766174        -0.630132
 H         0.199710        -0.590152        -1.873065
 H         2.587756         0.135159        -1.936512
 H         1.931547         1.533566        -1.242533
 H         4.172880         1.645718        -0.307690
 H         3.002502         1.477544         2.127020
 H         4.910289        -0.623360         2.545646
 H         2.714504        -2.012737        -0.402872
 H         1.937766        -1.881912         1.228958
