19
Iteration:  1474
 C         0.097073        -0.409359        -0.653880
 C         1.522793        -0.124544        -0.228683
 C         2.427874         0.815664        -1.048963
 C         3.598498         0.849303        -0.029986
 C         2.758519         0.923013         1.268335
 O         1.354076         0.798860         0.950541
 C         3.557585        -0.321564         0.853115
 O         4.750352        -0.789310         1.595030
 C         2.592486        -1.301268         0.280240
 H        -0.517159        -0.534639         0.175139
 H        -0.106560         0.401122        -1.315476
 H         0.037850        -1.393715        -1.220667
 H         2.645117         0.569562        -2.182581
 H         2.097057         1.812163        -0.978936
 H         4.352315         1.464266        -0.314039
 H         3.021632         1.629805         2.066500
 H         4.730542        -0.240673         2.424642
 H         2.846693        -1.827035        -0.693711
 H         2.105076        -1.971145         0.954436
