19
Iteration:   311
 C         0.175950        -0.705491        -0.675992
 C         1.455805         0.022808        -0.213709
 C         2.548440         0.773097        -1.123480
 C         3.678480         0.851972        -0.076531
 C         2.868509         1.030822         1.226935
 O         1.367379         0.892225         1.027507
 C         3.489606        -0.249711         0.944532
 O         4.709786        -0.861171         1.532987
 C         2.364782        -1.105123         0.343738
 H        -0.114040        -1.402669         0.195728
 H        -0.577719        -0.050852        -0.926972
 H         0.408930        -1.271632        -1.644745
 H         2.751678         0.088356        -1.959388
 H         2.263364         1.854130        -1.429727
 H         4.579439         1.264185        -0.268642
 H         3.049488         1.744559         2.053984
 H         4.431495        -1.388391         2.265641
 H         2.724405        -1.798969        -0.457834
 H         1.809594        -1.700179         1.025371
