19
Iteration:  4583charge 0 multiplicity 1
 C         0.140152        -0.360613        -0.716507
 C         1.625837        -0.106489        -0.357590
 C         2.639138         0.785645        -1.049835
 C         3.514945         0.975613         0.122340
 C         2.701055         0.919712         1.336628
 O         1.322717         0.602075         1.014904
 C         3.557478        -0.310184         0.867298
 O         4.665454        -0.717827         1.584493
 C         2.554726        -1.211327         0.164924
 H        -0.181347        -0.554163        -1.725909
 H        -0.313959        -1.236675        -0.161138
 H        -0.388389         0.470245        -0.202710
 H         3.125781         0.376201        -1.856112
 H         2.114610         1.649264        -1.612795
 H         4.316938         1.707860         0.037758
 H         2.809850         1.592917         2.136177
 H         4.416324        -1.452702         2.157200
 H         3.091144        -1.827879        -0.636044
 H         1.939961        -1.937815         0.793416
