19
Iteration:  1936charge 0 multiplicity 1
 C         0.166266        -0.542425        -0.790226
 C         1.553787        -0.033155        -0.312386
 C         2.455957         0.960247        -1.040012
 C         3.527391         1.044203         0.081071
 C         2.757955         0.884849         1.380003
 O         1.396069         0.596975         1.074273
 C         3.599406        -0.344276         0.861761
 O         4.713161        -0.762485         1.560993
 C         2.455118        -1.188380         0.244018
 H        -0.549757        -0.650512        -0.002578
 H        -0.210183        -0.010665        -1.604673
 H         0.292134        -1.541655        -1.087993
 H         2.796454         0.685445        -2.110734
 H         2.059157         1.912502        -1.157805
 H         4.420593         1.692457        -0.057353
 H         2.995191         1.455750         2.259812
 H         5.048132        -1.524740         0.995272
 H         2.889953        -1.788078        -0.528709
 H         1.858781        -1.710488         0.976350
