19
Iteration:  1358
 C         0.108221        -0.354236        -0.701169
 C         1.507184        -0.065237        -0.228996
 C         2.482345         0.630921        -1.126485
 C         3.535130         0.969945        -0.018812
 C         2.779704         0.850990         1.280834
 O         1.412147         0.717595         1.040504
 C         3.603528        -0.265506         0.826983
 O         4.748834        -0.692971         1.549869
 C         2.488314        -1.222920         0.329103
 H        -0.351450        -1.203009        -0.100902
 H        -0.530977         0.639068        -0.671733
 H         0.140321        -0.759694        -1.674080
 H         2.934981        -0.130725        -1.720240
 H         2.210320         1.495488        -1.749695
 H         4.377602         1.521030        -0.216611
 H         3.144022         1.428532         2.138688
 H         4.394215        -0.961987         2.411616
 H         2.477490        -1.907366        -0.532369
 H         2.118954        -1.793984         1.257490
