19
Iteration:  1058charge 0 multiplicity 1
 C         0.072573        -0.437190        -0.663586
 C         1.528436        -0.096940        -0.203614
 C         2.523516         0.747618        -1.103673
 C         3.596648         0.960656        -0.041749
 C         2.765990         0.916656         1.244870
 O         1.411262         0.696857         0.968985
 C         3.582786        -0.328582         0.812121
 O         4.700913        -0.693151         1.656069
 C         2.433796        -1.189269         0.310981
 H        -0.441032        -0.984624         0.174669
 H        -0.400646         0.495525        -0.838905
 H         0.157160        -1.049049        -1.566913
 H         3.130981         0.237970        -1.979297
 H         2.063589         1.615239        -1.446133
 H         4.454623         1.659886        -0.186031
 H         2.912556         1.536567         2.102737
 H         5.056939        -1.521564         1.274865
 H         2.825060        -2.122843        -0.126120
 H         1.939085        -1.553179         1.255586
