19
Iteration:   157
 C         0.141131        -0.629109        -0.690217
 C         1.506379        -0.148227        -0.139115
 C         2.532136         0.667605        -1.087403
 C         3.612848         0.999417         0.012585
 C         2.789663         1.066435         1.283250
 O         1.421559         0.904062         0.974010
 C         3.547296        -0.184417         0.911068
 O         4.589591        -0.904775         1.430478
 C         2.535770        -1.163273         0.341760
 H        -0.601643        -0.460072         0.094984
 H        -0.158035        -0.014637        -1.544356
 H         0.144641        -1.649390        -1.073187
 H         2.817172         0.215172        -1.979463
 H         2.010484         1.644579        -1.406232
 H         4.602772         1.617424        -0.262417
 H         2.972729         1.567020         2.177143
 H         4.193174        -1.461916         2.146792
 H         3.084203        -1.685870        -0.456768
 H         2.312226        -1.811066         1.173360
