19
Iteration:  4449charge 0 multiplicity 1
 C         0.172252        -0.370999        -0.771912
 C         1.545391        -0.130582        -0.290696
 C         2.522195         0.875017        -1.070451
 C         3.607557         0.940496         0.031687
 C         2.750295         0.836434         1.345713
 O         1.371951         0.622891         0.974753
 C         3.552000        -0.311119         0.898110
 O         4.657518        -0.624135         1.673287
 C         2.494950        -1.296075         0.170148
 H        -0.056492        -0.028579        -1.794195
 H        -0.050875        -1.408125        -0.690764
 H        -0.428064         0.191178        -0.078518
 H         2.879286         0.475704        -1.995482
 H         2.054270         1.800374        -1.228931
 H         4.368856         1.653048        -0.044722
 H         3.045510         1.350735         2.271443
 H         4.526201        -1.360446         2.241549
 H         2.925410        -1.861549        -0.676446
 H         2.068123        -2.065024         0.805084
