19
Iteration:  2495
 C         0.267372        -0.607258        -0.840611
 C         1.540044        -0.067827        -0.234546
 C         2.524847         0.962804        -0.935735
 C         3.582549         0.959475         0.108352
 C         2.665956         0.910903         1.374954
 O         1.257880         0.688940         0.984773
 C         3.532850        -0.255119         0.891988
 O         4.701488        -0.837115         1.477022
 C         2.606829        -1.115741         0.209620
 H        -0.129763        -0.104893        -1.640835
 H         0.415455        -1.666851        -1.209876
 H        -0.547361        -0.778421        -0.095812
 H         3.003444         0.548829        -1.946954
 H         2.106468         1.968159        -1.039209
 H         4.431008         1.735016         0.171935
 H         2.726490         1.552927         2.257614
 H         4.522557        -1.641504         1.996497
 H         3.074592        -1.583111        -0.691388
 H         1.938743        -1.858825         0.848240
