19
Iteration:   714charge 0 multiplicity 1
 C         0.223642        -0.533823        -0.679330
 C         1.532737        -0.078751        -0.131720
 C         2.529089         0.626100        -1.099155
 C         3.585523         0.981726        -0.057160
 C         2.769623         1.083802         1.290566
 O         1.381017         0.866381         1.011474
 C         3.552028        -0.314005         0.819017
 O         4.664489        -0.853769         1.520623
 C         2.438051        -1.174706         0.339547
 H         0.032356        -1.523681        -0.339890
 H        -0.462110         0.203689        -0.423799
 H         0.417968        -0.508274        -1.798555
 H         2.923106        -0.019853        -1.799788
 H         1.910206         1.494335        -1.635668
 H         4.495041         1.541260        -0.217621
 H         2.904267         1.864801         2.049626
 H         4.255694        -1.453961         2.209917
 H         2.687780        -1.802167        -0.551266
 H         2.079535        -1.830869         1.140676
