19
Iteration:   380charge 0 multiplicity 1
 C         0.003343        -0.279640        -0.752092
 C         1.477833        -0.106730        -0.152557
 C         2.577822         0.672190        -1.090474
 C         3.631425         0.781244        -0.044480
 C         2.797833         0.976089         1.288288
 O         1.450416         0.662011         0.979316
 C         3.514819        -0.349771         0.959249
 O         4.814406        -0.513884         1.513097
 C         2.341576        -1.331894         0.320612
 H        -0.879124        -0.119804        -0.126049
 H        -0.151468         0.260628        -1.761859
 H        -0.127589        -1.341770        -1.127805
 H         2.977456        -0.039721        -1.935804
 H         2.219212         1.628478        -1.354297
 H         4.741255         1.198042        -0.120737
 H         3.040891         1.676628         2.091342
 H         4.852964        -0.714443         2.454240
 H         2.751777        -1.985807        -0.470273
 H         1.745678        -2.020985         1.057357
