19
Iteration:  4314charge 0 multiplicity 1
 C         0.187039        -0.392840        -0.915148
 C         1.558981        -0.105035        -0.216018
 C         2.406744         0.919327        -0.984724
 C         3.548201         1.006055         0.097853
 C         2.752939         0.793688         1.393700
 O         1.365993         0.587608         1.073956
 C         3.615498        -0.275270         0.759394
 O         4.608618        -0.676154         1.683851
 C         2.649192        -1.302194         0.135240
 H        -0.334791        -1.363508        -0.849795
 H        -0.540086         0.356915        -0.450521
 H         0.350167        -0.202198        -2.002995
 H         2.646150         0.511147        -2.019719
 H         1.901521         1.822173        -1.057546
 H         4.268748         1.828458         0.009882
 H         3.000468         1.256994         2.364743
 H         4.945731        -1.561437         1.575321
 H         2.960810        -1.720563        -0.847852
 H         2.123025        -1.993170         0.849209
