19
Iteration:  4283charge 0 multiplicity 1
 C         0.227953        -0.443781        -0.849625
 C         1.637493        -0.094546        -0.299768
 C         2.466982         0.960927        -1.043516
 C         3.491777         1.028799         0.182307
 C         2.651562         0.857732         1.457950
 O         1.359668         0.531268         1.048778
 C         3.573433        -0.283698         0.879237
 O         4.738614        -0.726741         1.550348
 C         2.521206        -1.228254         0.145768
 H        -0.418789        -0.937579        -0.164449
 H        -0.238124         0.504781        -1.178791
 H         0.208248        -0.971225        -1.821835
 H         2.844044         0.591445        -2.062830
 H         1.993603         1.878089        -1.208947
 H         4.301954         1.853424         0.225335
 H         2.825885         1.433321         2.389449
 H         4.760856        -1.710475         1.488459
 H         2.918029        -1.852346        -0.670712
 H         1.928776        -1.985840         0.686130
