19
Iteration:  1868charge 0 multiplicity 1
 C         0.029288        -0.454571        -0.802113
 C         1.523698        -0.084702        -0.277875
 C         2.557969         0.826960        -1.049099
 C         3.561129         1.043361         0.070017
 C         2.736659         0.884572         1.370462
 O         1.384936         0.591483         1.033310
 C         3.601298        -0.225169         0.886692
 O         4.759206        -0.793547         1.415818
 C         2.491058        -1.228712         0.308477
 H        -0.568885        -0.615063         0.126145
 H        -0.219019         0.421343        -1.417475
 H        -0.030567        -1.344020        -1.299061
 H         2.998354         0.520483        -2.079814
 H         2.001253         1.719942        -1.285333
 H         4.491588         1.654195         0.104910
 H         2.918639         1.266910         2.387980
 H         4.710669        -0.669147         2.404254
 H         2.969588        -1.884398        -0.424819
 H         1.950790        -1.739716         1.138354
