19
Iteration:  3769
 C         0.197378        -0.384389        -0.800981
 C         1.545169        -0.058496        -0.274618
 C         2.517986         0.892330        -1.053187
 C         3.580203         0.988627         0.149256
 C         2.758338         0.779750         1.414873
 O         1.365665         0.485607         1.015346
 C         3.520409        -0.332127         0.906134
 O         4.707812        -0.618355         1.608343
 C         2.487736        -1.204817         0.059683
 H        -0.614428         0.378910        -0.485466
 H         0.032001        -0.355627        -1.947112
 H        -0.225126        -1.324841        -0.616380
 H         2.874411         0.544860        -2.016098
 H         2.024803         1.911880        -1.299782
 H         4.412075         1.694296         0.036080
 H         2.877847         1.487090         2.251070
 H         4.502065        -1.449995         2.168766
 H         3.019844        -1.747546        -0.756896
 H         2.176086        -1.945220         0.806054
