19
Iteration:   936charge 0 multiplicity 1
 C         0.144637        -0.324630        -0.738890
 C         1.512769        -0.080298        -0.148721
 C         2.497811         0.632246        -1.102004
 C         3.543420         0.772261        -0.038772
 C         2.762102         0.960275         1.296290
 O         1.373777         0.742440         1.028586
 C         3.567528        -0.328427         0.904149
 O         4.769425        -0.631237         1.468844
 C         2.463066        -1.241836         0.330049
 H        -0.306796        -1.178288        -0.226495
 H        -0.448677         0.622640        -0.660009
 H         0.290698        -0.608133        -1.701182
 H         2.900813        -0.080705        -1.917119
 H         2.227433         1.573671        -1.584899
 H         4.487848         1.300987        -0.022712
 H         2.830943         1.735067         2.094770
 H         4.508875        -0.706582         2.445431
 H         2.811343        -1.824718        -0.502456
 H         2.051228        -2.041461         1.016258
