19
Iteration:  3616
 C         0.151273        -0.414798        -0.791602
 C         1.570149        -0.154094        -0.277289
 C         2.540490         0.922363        -1.060872
 C         3.515266         1.067299         0.130399
 C         2.661753         0.825525         1.391701
 O         1.350364         0.636627         1.050917
 C         3.591628        -0.308782         0.815765
 O         4.676765        -0.737418         1.585559
 C         2.636735        -1.270068         0.108644
 H        -0.281582         0.442880        -1.328399
 H         0.041422        -1.254522        -1.508698
 H        -0.459379        -0.525516         0.044828
 H         2.988782         0.304868        -1.868184
 H         2.082633         1.945329        -1.286376
 H         4.412117         1.827077         0.177964
 H         2.775697         1.139721         2.453565
 H         4.365802        -1.325208         2.267526
 H         3.005069        -1.736565        -0.855361
 H         2.168871        -1.971458         0.846303
