19
Iteration:   669charge 0 multiplicity 1
 C         0.154300        -0.288396        -0.763564
 C         1.546345        -0.184905        -0.191125
 C         2.501198         0.666587        -1.043253
 C         3.588822         0.827801        -0.060778
 C         2.729846         0.918089         1.270026
 O         1.336186         0.791121         0.906365
 C         3.641995        -0.343277         0.925254
 O         4.844396        -0.605420         1.526490
 C         2.322283        -1.367312         0.405910
 H        -0.448702        -1.106982        -0.302073
 H        -0.266378         0.623482        -0.578756
 H         0.143784        -0.326308        -1.906423
 H         2.578490         0.079961        -1.909533
 H         1.941368         1.737211        -1.187196
 H         4.386897         1.475635        -0.171779
 H         3.081834         1.626907         2.022454
 H         4.817890        -0.508462         2.521262
 H         2.666372        -2.215918        -0.282697
 H         1.936793        -1.857050         1.280301
