19
Iteration:  1113
 C         0.092288        -0.407654        -0.833297
 C         1.470589        -0.069117        -0.122697
 C         2.471266         0.629256        -1.095684
 C         3.611768         0.885385        -0.060401
 C         2.776591         0.939389         1.364556
 O         1.372997         0.824833         0.990740
 C         3.564359        -0.338758         0.891838
 O         4.767993        -0.777135         1.559233
 C         2.450496        -1.210119         0.403182
 H        -0.272567        -1.314027        -0.295210
 H        -0.712651         0.262982        -0.693094
 H         0.190873        -0.530010        -1.971494
 H         3.044976         0.101540        -1.981482
 H         2.029901         1.467465        -1.487364
 H         4.419505         1.525659        -0.232783
 H         2.936356         1.653028         2.209814
 H         5.481779        -0.180607         1.155023
 H         2.884076        -1.861671        -0.410937
 H         2.029760        -1.786082         1.274133
