19
Iteration:  3595
 C         0.277391        -0.483569        -0.785419
 C         1.533138        -0.094774        -0.261246
 C         2.475158         0.930806        -0.944636
 C         3.544016         1.040279         0.092622
 C         2.733153         0.836876         1.378485
 O         1.371821         0.625100         0.946428
 C         3.533767        -0.294644         0.846550
 O         4.666795        -0.831189         1.564446
 C         2.534331        -1.177759         0.137209
 H        -0.393102         0.316908        -1.122913
 H         0.453340        -1.094423        -1.679619
 H        -0.316951        -0.996283        -0.110981
 H         2.744436         0.614836        -1.939453
 H         1.809483         1.872232        -0.835027
 H         4.522425         1.685482         0.041145
 H         2.920812         1.535466         2.225551
 H         4.436857        -0.964148         2.494669
 H         3.096325        -1.610890        -0.739941
 H         2.076482        -1.910857         0.853937
