19
Iteration:  4422charge 0 multiplicity 1
 C         0.223305        -0.415116        -0.943769
 C         1.506747        -0.122569        -0.212686
 C         2.418248         0.828134        -1.008965
 C         3.535275         1.022437         0.040694
 C         2.757649         0.924857         1.371863
 O         1.380060         0.671489         1.064499
 C         3.634419        -0.249053         0.872547
 O         4.676752        -0.818058         1.585729
 C         2.521298        -1.261041         0.228494
 H         0.429605        -0.276502        -2.014195
 H        -0.031195        -1.509839        -0.763255
 H        -0.572677         0.265855        -0.517411
 H         2.836186         0.253138        -1.913016
 H         1.961796         1.723646        -1.543919
 H         4.397548         1.730703        -0.176018
 H         3.031505         1.454222         2.295641
 H         4.430893        -0.855301         2.492130
 H         2.801842        -1.986394        -0.569303
 H         2.181045        -1.943662         1.059671
