19
Iteration:  1624charge 0 multiplicity 1
 C         0.095969        -0.315339        -0.643866
 C         1.552097        -0.125075        -0.213563
 C         2.402666         0.747386        -1.155609
 C         3.519670         0.915020        -0.074334
 C         2.744191         0.929491         1.208255
 O         1.404061         0.671403         0.965902
 C         3.647121        -0.262226         0.977280
 O         4.760782        -0.840450         1.673099
 C         2.520194        -1.256429         0.235559
 H        -0.469735        -0.839312         0.106827
 H        -0.461081         0.600695        -0.730293
 H         0.239416        -0.898643        -1.658637
 H         2.529024         0.338997        -2.116392
 H         1.914954         1.847398        -1.225989
 H         4.466991         1.461517        -0.113547
 H         2.852203         1.767565         1.886668
 H         5.086882        -0.207609         2.344254
 H         2.928274        -1.734683        -0.699651
 H         2.035570        -1.993359         0.907565
