19
Iteration:   556charge 0 multiplicity 1
 C         0.203835        -0.431139        -0.714490
 C         1.515474        -0.010548        -0.166533
 C         2.541261         0.672348        -1.128686
 C         3.558691         0.901233        -0.073293
 C         2.793593         0.947945         1.269576
 O         1.403559         0.760178         1.019741
 C         3.521035        -0.282246         0.873429
 O         4.749033        -0.727225         1.536417
 C         2.396588        -1.242400         0.367370
 H        -0.470312        -0.803138         0.066374
 H        -0.418162         0.320441        -1.369751
 H         0.369717        -1.228180        -1.394781
 H         2.724203        -0.255189        -1.851069
 H         2.126675         1.491862        -1.724092
 H         4.459972         1.477145        -0.236685
 H         2.971150         1.566276         2.129206
 H         4.543409        -0.884162         2.510834
 H         2.682186        -1.940085        -0.412977
 H         1.749380        -1.683702         1.182780
