19
Iteration:  2715charge 0 multiplicity 1
 C         0.217005        -0.378833        -0.825759
 C         1.534105        -0.169724        -0.242542
 C         2.501457         0.854909        -0.958923
 C         3.572366         1.000874         0.119641
 C         2.701967         0.912045         1.318784
 O         1.312819         0.634972         0.949878
 C         3.484922        -0.311862         0.877178
 O         4.720516        -0.672121         1.557114
 C         2.613906        -1.294511         0.237504
 H        -0.096748         0.431590        -1.543089
 H         0.138585        -1.229949        -1.484950
 H        -0.531497        -0.355567        -0.120999
 H         2.912606         0.460919        -1.953343
 H         1.941477         1.685448        -1.138223
 H         4.582247         1.604263         0.135531
 H         2.696597         1.350801         2.315556
 H         4.606046        -1.507498         2.101179
 H         2.929231        -1.750552        -0.731233
 H         2.317687        -2.203056         0.925991
