19
Iteration:  1309charge 0 multiplicity 1
 C         0.145602        -0.526103        -0.685852
 C         1.545921        -0.093652        -0.224632
 C         2.410425         0.835252        -1.097734
 C         3.627717         0.871790        -0.114465
 C         2.770191         0.977716         1.282496
 O         1.375504         0.792863         0.951506
 C         3.579941        -0.235364         0.917795
 O         4.687408        -0.970788         1.580769
 C         2.521286        -1.154873         0.370687
 H        -0.025759        -1.470252        -0.187726
 H        -0.503736         0.167628        -0.299057
 H        -0.057948        -0.722532        -1.815293
 H         2.611451         0.428361        -2.175353
 H         1.986379         1.846206        -1.061792
 H         4.521183         1.622938        -0.273611
 H         3.009919         1.665643         2.054876
 H         5.016946        -0.096666         1.959175
 H         2.967856        -1.969271        -0.252952
 H         1.794094        -1.488306         1.081369
