19
Iteration:  2340
 C         0.277900        -0.562061        -0.820801
 C         1.556904        -0.117169        -0.186412
 C         2.485272         0.846096        -0.981157
 C         3.556209         1.077191         0.046046
 C         2.728448         0.944973         1.362348
 O         1.364152         0.736530         0.984859
 C         3.556793        -0.273166         0.848744
 O         4.584768        -0.819296         1.631201
 C         2.546645        -1.194593         0.212893
 H        -0.526821         0.110272        -0.739014
 H         0.376967        -0.852276        -1.876745
 H        -0.030619        -1.504217        -0.252255
 H         2.819574         0.520374        -2.003942
 H         1.895226         1.721129        -1.376561
 H         4.344524         1.731743        -0.002919
 H         2.955022         1.522649         2.283233
 H         5.011225        -1.523500         1.024799
 H         2.801674        -1.832124        -0.673380
 H         2.206985        -1.974936         0.918873
