19
Iteration:  3721charge 0 multiplicity 1
 C         0.294176        -0.519387        -0.833024
 C         1.544158        -0.031947        -0.192453
 C         2.515432         0.908546        -0.956839
 C         3.515708         1.078121         0.138469
 C         2.704507         0.864214         1.375498
 O         1.381179         0.622215         1.019781
 C         3.532576        -0.224735         0.895568
 O         4.642511        -0.886495         1.467403
 C         2.549338        -1.155884         0.127280
 H        -0.486721         0.219827        -0.954268
 H         0.380164        -0.980173        -1.866699
 H        -0.242153        -1.448295        -0.375900
 H         2.877875         0.396290        -1.888522
 H         2.013668         1.730777        -1.313120
 H         4.386849         1.723975         0.167004
 H         2.798339         1.294972         2.389785
 H         4.488465        -0.919338         2.388074
 H         2.997621        -1.617700        -0.747300
 H         2.075736        -1.955305         0.680802
