19
Iteration:  3626charge 0 multiplicity 1
 C         0.140233        -0.350398        -0.788118
 C         1.497088        -0.075771        -0.289248
 C         2.605363         0.858206        -1.032144
 C         3.513993         1.100759         0.147752
 C         2.659759         0.815487         1.418870
 O         1.356635         0.528101         1.043575
 C         3.493948        -0.255845         0.809962
 O         4.758854        -0.707108         1.604037
 C         2.587210        -1.248909         0.088411
 H        -0.216550         0.404878        -1.475677
 H         0.132174        -1.381313        -1.297696
 H        -0.575505        -0.513485        -0.048264
 H         2.982710         0.288498        -1.973301
 H         2.110563         1.718247        -1.578982
 H         4.575566         1.502875         0.078114
 H         2.840944         1.347366         2.400132
 H         4.511474        -1.500935         2.147912
 H         3.153860        -1.819939        -0.705997
 H         2.203748        -2.056265         0.758527
