19
Iteration:  3789charge 0 multiplicity 1
 C         0.239660        -0.340307        -0.936426
 C         1.579475        -0.117176        -0.212025
 C         2.489055         0.840219        -0.950788
 C         3.515351         1.080063         0.136118
 C         2.641569         0.824753         1.373882
 O         1.326331         0.604391         1.121137
 C         3.532680        -0.363545         0.849689
 O         4.766849        -0.682511         1.490493
 C         2.568309        -1.257607         0.175570
 H        -0.535179         0.447432        -0.702031
 H         0.419646        -0.562413        -2.012730
 H        -0.312056        -1.255509        -0.775156
 H         2.958078         0.301196        -1.818331
 H         2.085081         1.711526        -1.295758
 H         4.431742         1.755065         0.012373
 H         2.845196         1.197371         2.351070
 H         4.403449        -1.286767         2.217770
 H         2.864335        -1.756932        -0.752287
 H         2.096516        -2.051769         0.691357
