19
Iteration:  2577charge 0 multiplicity 1
 C         0.263655        -0.421949        -0.856463
 C         1.650446        -0.152619        -0.241720
 C         2.471371         0.795924        -1.021663
 C         3.448242         1.032117         0.096107
 C         2.723029         0.936855         1.353318
 O         1.391125         0.637939         0.995850
 C         3.480078        -0.324855         0.964723
 O         4.660587        -0.763836         1.564706
 C         2.538363        -1.284291         0.132671
 H        -0.420392         0.483728        -0.484320
 H         0.311660        -0.383123        -1.929377
 H        -0.192738        -1.292494        -0.292172
 H         2.837884         0.455392        -1.989023
 H         1.918950         1.779252        -1.190591
 H         4.489476         1.521743         0.331592
 H         2.766756         1.536907         2.276619
 H         4.916462        -0.094060         2.147921
 H         3.097070        -1.718658        -0.702327
 H         2.081653        -2.015635         0.666479
