19
Iteration:  1505
 C         0.177286        -0.390006        -0.712398
 C         1.535498        -0.092962        -0.204579
 C         2.491408         0.654480        -1.141339
 C         3.552178         0.983617        -0.046329
 C         2.831860         0.881665         1.343357
 O         1.457496         0.659861         1.078126
 C         3.513626        -0.293600         0.815175
 O         4.681492        -0.672411         1.521791
 C         2.418702        -1.182238         0.340624
 H        -0.381132        -1.045089        -0.069487
 H        -0.396543         0.505200        -0.752631
 H         0.334613        -0.855353        -1.818966
 H         2.910571        -0.038064        -1.868394
 H         2.248747         1.566879        -1.704541
 H         4.345020         1.542631        -0.347076
 H         3.166908         1.322856         2.306727
 H         4.470311        -0.628379         2.464644
 H         2.586914        -1.839146        -0.557568
 H         1.786943        -1.816661         0.944118
