19
Iteration:  1863
 C         0.065273        -0.455581        -0.789516
 C         1.546920        -0.111441        -0.250462
 C         2.559512         0.830679        -1.018202
 C         3.550387         1.025716         0.065258
 C         2.716720         0.893245         1.363694
 O         1.367559         0.625191         1.002855
 C         3.602542        -0.243320         0.885812
 O         4.777314        -0.790404         1.407407
 C         2.471355        -1.204376         0.297862
 H        -0.561064        -0.628362         0.078780
 H        -0.339869         0.408338        -1.368813
 H         0.034362        -1.444621        -1.443905
 H         2.975011         0.554822        -1.939309
 H         1.930183         1.783419        -1.151039
 H         4.480628         1.574311         0.057149
 H         2.884038         1.346299         2.328999
 H         4.732144        -0.924645         2.352715
 H         2.903548        -1.949213        -0.403657
 H         2.033479        -1.655197         1.190581
