19
Iteration:  4029charge 0 multiplicity 1
 C         0.083771        -0.414898        -0.736256
 C         1.597471        -0.006145        -0.322999
 C         2.550249         0.883746        -0.936979
 C         3.588529         1.045299         0.124294
 C         2.650888         0.729142         1.401155
 O         1.355717         0.480729         1.061436
 C         3.518187        -0.337904         0.861196
 O         4.687214        -0.662924         1.582400
 C         2.607607        -1.146572        -0.022280
 H        -0.555729         0.442572        -0.472645
 H         0.169240        -0.332051        -1.847156
 H        -0.031285        -1.411671        -0.508647
 H         2.906643         0.514610        -2.010677
 H         2.143008         1.827574        -1.265807
 H         4.417007         1.849997         0.045145
 H         2.845837         1.183019         2.313166
 H         4.439883        -1.271171         2.342819
 H         3.098272        -1.617780        -0.886113
 H         2.256889        -2.061857         0.503928
