19
Iteration:  3734charge 0 multiplicity 1
 C         0.184376        -0.483673        -0.778582
 C         1.602517        -0.137848        -0.272429
 C         2.489617         0.905570        -0.981099
 C         3.562841         1.092203         0.173434
 C         2.667801         0.833805         1.422844
 O         1.327582         0.675246         0.962196
 C         3.577223        -0.342734         0.822043
 O         4.652992        -0.815248         1.529024
 C         2.598358        -1.199647         0.103637
 H        -0.524185         0.369387        -0.529526
 H         0.447057        -0.580078        -1.935432
 H        -0.087210        -1.385112        -0.158027
 H         2.999492         0.559238        -1.957942
 H         1.968134         1.822184        -1.018186
 H         4.477208         1.874314         0.137690
 H         2.806011         1.490623         2.219372
 H         4.336753        -1.091064         2.474260
 H         2.966612        -1.628200        -0.850373
 H         2.264539        -1.965011         0.804340
