19
Iteration:  4498
 C         0.240743        -0.525261        -0.876957
 C         1.585450        -0.082968        -0.230304
 C         2.556487         0.795409        -1.011933
 C         3.497701         1.075158         0.116221
 C         2.711717         0.940800         1.401179
 O         1.360252         0.767568         1.017530
 C         3.561936        -0.283462         0.888967
 O         4.675806        -0.872666         1.453640
 C         2.499920        -1.205709         0.243659
 H         0.166795        -0.121610        -1.901646
 H         0.184436        -1.637958        -0.916814
 H        -0.571965         0.014495        -0.302734
 H         2.929875         0.117599        -1.848082
 H         1.890825         1.664843        -1.417551
 H         4.419629         1.678758         0.055749
 H         2.759006         1.522541         2.281848
 H         4.508122        -1.078605         2.424597
 H         2.897396        -2.013530        -0.388894
 H         1.932492        -1.785923         1.029583
