19
Iteration:  3074
 C         0.174560        -0.420246        -0.833854
 C         1.558914        -0.156284        -0.270559
 C         2.535492         0.847062        -1.038038
 C         3.574400         0.965994         0.078977
 C         2.658697         0.860154         1.346950
 O         1.338483         0.595699         0.981028
 C         3.565514        -0.297647         0.941974
 O         4.708369        -0.701999         1.590174
 C         2.556519        -1.196647         0.192946
 H        -0.355964         0.558566        -0.441316
 H         0.092030        -0.159869        -1.912070
 H        -0.275989        -1.329530        -0.490731
 H         2.999535         0.478962        -2.002354
 H         2.181154         1.843118        -1.143815
 H         4.367735         1.765831         0.187692
 H         2.862064         1.552888         2.130311
 H         4.438487        -1.380212         2.172878
 H         3.026818        -1.756742        -0.654893
 H         1.965185        -1.863705         0.922329
