19
Iteration:  1943charge 0 multiplicity 1
 C         0.259060        -0.567176        -0.778431
 C         1.577691        -0.029888        -0.250003
 C         2.489667         0.973734        -1.039828
 C         3.543690         1.035956         0.060635
 C         2.751544         0.862662         1.367053
 O         1.366050         0.594258         1.061039
 C         3.567835        -0.279064         0.888778
 O         4.727791        -0.774684         1.492967
 C         2.374283        -1.153599         0.225702
 H        -0.432678        -0.585522         0.173957
 H        -0.248435         0.097840        -1.589787
 H         0.389746        -1.599430        -1.190108
 H         2.800798         0.441922        -1.982362
 H         1.890155         1.939517        -1.302867
 H         4.409575         1.781727         0.078297
 H         2.851487         1.287416         2.371319
 H         5.043645        -1.633775         1.305218
 H         2.708176        -1.948514        -0.516143
 H         1.861601        -1.757958         1.031999
