19
Iteration:  3557
 C         0.288093        -0.518972        -0.951356
 C         1.553521        -0.073865        -0.184243
 C         2.500880         0.837865        -0.952345
 C         3.522733         1.074130         0.136366
 C         2.711884         0.840608         1.423011
 O         1.363950         0.699077         1.063995
 C         3.570044        -0.260956         0.870422
 O         4.679759        -0.870043         1.413052
 C         2.444684        -1.136397         0.244843
 H        -0.629307         0.093479        -0.842369
 H         0.628383        -0.595195        -1.998836
 H         0.186858        -1.662797        -0.742220
 H         2.853375         0.306576        -1.942507
 H         2.143642         1.755792        -1.363094
 H         4.398824         1.707830         0.046501
 H         2.755546         1.433012         2.290108
 H         4.663435        -0.614781         2.409976
 H         2.729619        -1.782641        -0.568280
 H         2.004980        -1.812391         0.967775
