19
Iteration:  3078charge 0 multiplicity 1
 C         0.171647        -0.361005        -0.853281
 C         1.554048        -0.181290        -0.249426
 C         2.521554         0.818066        -0.995626
 C         3.582423         0.964153         0.098401
 C         2.659196         0.891954         1.352677
 O         1.347359         0.606479         0.953973
 C         3.570437        -0.282769         0.964105
 O         4.696169        -0.672999         1.571223
 C         2.579269        -1.271735         0.165227
 H        -0.410028         0.543181        -0.407761
 H         0.012157        -0.210697        -1.909640
 H        -0.357615        -1.364678        -0.550322
 H         2.996188         0.476604        -2.048102
 H         1.983986         1.803006        -1.132660
 H         4.470349         1.721686         0.141173
 H         2.963021         1.508321         2.214494
 H         4.398936        -1.413403         2.223548
 H         3.063513        -1.784556        -0.612063
 H         2.060812        -1.903535         0.820781
