19
Iteration:  3367
 C         0.213246        -0.362887        -0.925556
 C         1.551276        -0.153628        -0.321540
 C         2.481584         0.884697        -1.010960
 C         3.533639         1.020223         0.077689
 C         2.675631         0.873794         1.384488
 O         1.335472         0.592887         1.074016
 C         3.608179        -0.340778         0.903032
 O         4.675749        -0.726007         1.662587
 C         2.538913        -1.254209         0.187732
 H        -0.226968         0.660684        -0.721100
 H         0.388728        -0.689379        -1.946073
 H        -0.275612        -1.110850        -0.332076
 H         2.801155         0.512081        -1.935038
 H         1.913125         1.857346        -1.262699
 H         4.321358         1.658101         0.090902
 H         2.853799         1.454268         2.279068
 H         5.326148        -1.184169         1.151302
 H         2.931668        -1.902971        -0.569169
 H         2.090984        -1.892541         0.859171
