19
Iteration:   415
 C         0.148723        -0.396965        -0.694301
 C         1.532714        -0.125263        -0.123572
 C         2.527212         0.652174        -1.103419
 C         3.564092         0.930257        -0.042039
 C         2.794130         0.950876         1.269833
 O         1.397432         0.848209         0.964602
 C         3.546097        -0.322521         0.821029
 O         4.711803        -0.719391         1.523474
 C         2.466398        -1.307618         0.377417
 H        -0.646909        -0.452066         0.026270
 H        -0.070418         0.427701        -1.515978
 H         0.308328        -1.318774        -1.156623
 H         2.866060         0.071946        -1.977685
 H         2.038003         1.501047        -1.540986
 H         4.360738         1.577476        -0.165261
 H         3.024103         1.679211         2.089778
 H         4.411068        -1.085161         2.385324
 H         2.601824        -2.061040        -0.404842
 H         1.951061        -1.724371         1.316132
