19
Iteration:  4233charge 0 multiplicity 1
 C         0.319388        -0.543552        -0.945381
 C         1.587962        -0.031719        -0.234078
 C         2.504189         0.962990        -0.896666
 C         3.423742         1.075660         0.236362
 C         2.651074         0.814194         1.490631
 O         1.308776         0.648785         1.056827
 C         3.529612        -0.303172         0.858998
 O         4.752353        -0.849645         1.316703
 C         2.550040        -1.176878         0.169096
 H        -0.601422        -0.402100        -0.319315
 H         0.095897        -0.200295        -1.984874
 H         0.286855        -1.625559        -1.183385
 H         3.005315         0.730453        -1.782278
 H         1.905845         1.968763        -1.113429
 H         4.385151         1.714185         0.241950
 H         2.912015         1.600852         2.234583
 H         4.649570        -1.097054         2.277340
 H         2.951161        -1.943397        -0.518522
 H         2.176286        -1.860820         0.948731
