19
Iteration:  4915
 C         0.197510        -0.604322        -0.779517
 C         1.530491        -0.090058        -0.222622
 C         2.605501         0.860604        -1.009611
 C         3.608036         0.972411         0.133485
 C         2.668622         0.972559         1.353447
 O         1.364622         0.769015         0.966897
 C         3.512687        -0.293702         0.951463
 O         4.670025        -0.845893         1.420875
 C         2.491556        -1.114623         0.229076
 H         0.101906        -1.675150        -0.496082
 H        -0.676877        -0.107188        -0.276266
 H         0.081749        -0.374865        -1.825246
 H         2.947741         0.503496        -1.921938
 H         2.183481         1.885058        -1.319866
 H         4.596585         1.363068        -0.074552
 H         2.884443         1.636687         2.250602
 H         4.678608        -1.620386         2.052631
 H         2.810326        -1.810745        -0.552935
 H         2.002332        -1.755054         1.015334
