19
Iteration:   629charge 0 multiplicity 1
 C         0.116926        -0.455487        -0.699206
 C         1.485388        -0.055964        -0.199556
 C         2.577208         0.673672        -1.136494
 C         3.658843         0.931072        -0.085027
 C         2.794114         1.003080         1.250691
 O         1.404279         0.713638         1.092315
 C         3.496733        -0.238002         0.869487
 O         4.657306        -0.749641         1.535569
 C         2.492826        -1.217392         0.346108
 H        -0.522497        -0.696020         0.119185
 H        -0.398105         0.356879        -1.249611
 H         0.166385        -1.385032        -1.331987
 H         2.889014        -0.101781        -1.856163
 H         2.348995         1.507394        -1.719827
 H         4.426957         1.591745        -0.307578
 H         2.957837         1.686520         2.072097
 H         4.359194        -1.247069         2.313505
 H         2.845987        -1.817379        -0.469537
 H         2.017989        -1.761689         1.160826
