19
Iteration:  3069
 C         0.185028        -0.441423        -0.819252
 C         1.572846        -0.106105        -0.298250
 C         2.563505         0.873583        -1.069640
 C         3.554664         0.968113         0.071377
 C         2.674925         0.826560         1.338370
 O         1.326885         0.587196         1.008046
 C         3.544983        -0.296122         0.901529
 O         4.725651        -0.731022         1.604417
 C         2.529453        -1.148043         0.230847
 H        -0.344909         0.373837        -0.455806
 H         0.215778        -0.298726        -1.901433
 H        -0.268776        -1.386797        -0.429696
 H         2.947419         0.425706        -1.982336
 H         2.229775         1.946840        -1.245238
 H         4.261208         1.761961         0.174836
 H         2.730141         1.592774         2.143962
 H         4.465897        -1.467918         2.263312
 H         2.946093        -1.725031        -0.611583
 H         2.012654        -1.801575         0.912702
