19
Iteration:  1426
 C         0.147913        -0.583388        -0.776148
 C         1.470717        -0.048079        -0.109352
 C         2.625387         0.731341        -1.107433
 C         3.585536         1.009043        -0.032214
 C         2.756378         0.931093         1.281118
 O         1.345199         0.778365         1.135645
 C         3.591810        -0.235148         0.775190
 O         4.719259        -0.873876         1.433840
 C         2.434778        -1.081287         0.338919
 H        -0.555062        -0.585765         0.139549
 H        -0.223944        -0.069247        -1.682174
 H         0.240006        -1.704247        -0.872420
 H         2.975758        -0.048072        -1.646478
 H         2.222361         1.564356        -1.799611
 H         4.492404         1.742639         0.036528
 H         3.049309         1.448614         2.183028
 H         4.489125        -0.949075         2.358711
 H         2.583549        -1.723178        -0.550897
 H         1.886072        -1.582068         1.204751
