19
Iteration:  3015
 C         0.314338        -0.536264        -0.920023
 C         1.545986        -0.056836        -0.227042
 C         2.429370         0.900035        -0.983346
 C         3.559296         0.979080         0.097305
 C         2.714773         0.944188         1.390911
 O         1.282122         0.744048         1.015874
 C         3.501839        -0.292742         0.951672
 O         4.709502        -0.883950         1.448676
 C         2.581795        -1.207097         0.250872
 H        -0.095168         0.176018        -1.530646
 H         0.603394        -1.498790        -1.408385
 H        -0.509905        -0.871201        -0.210036
 H         2.715306         0.622593        -1.951039
 H         2.093049         1.975263        -1.093049
 H         4.557011         1.578063         0.071128
 H         2.709961         1.593877         2.285120
 H         4.636034        -1.123653         2.439865
 H         3.065409        -1.680470        -0.685957
 H         2.124992        -2.054006         0.852410
