19
Iteration:  4285
 C         0.230475        -0.434019        -0.854363
 C         1.627671        -0.097188        -0.299271
 C         2.470411         0.958986        -1.032248
 C         3.495749         1.033953         0.172326
 C         2.656649         0.848010         1.430574
 O         1.362845         0.524870         1.046858
 C         3.553841        -0.268877         0.867682
 O         4.744854        -0.728713         1.567809
 C         2.521552        -1.240921         0.152402
 H        -0.425877        -0.932890        -0.191953
 H        -0.236446         0.497705        -1.046819
 H         0.236108        -0.956389        -1.826280
 H         2.821079         0.610010        -2.028252
 H         1.902933         1.930619        -1.200905
 H         4.352185         1.856503         0.205870
 H         2.820794         1.391240         2.392404
 H         4.811267        -1.735417         1.527467
 H         2.931540        -1.807394        -0.681084
 H         1.928953        -1.950456         0.704723
