19
Iteration:   394
 C         0.134870        -0.335513        -0.765785
 C         1.502828        -0.096170        -0.216310
 C         2.513507         0.606823        -1.082386
 C         3.583954         0.809627        -0.028712
 C         2.835339         0.805836         1.307388
 O         1.411132         0.820132         1.007997
 C         3.490842        -0.420019         0.914586
 O         4.789278        -0.471303         1.501063
 C         2.381456        -1.281597         0.358302
 H        -0.492520        -0.011217         0.045200
 H        -0.032346         0.519519        -1.562596
 H        -0.055743        -1.313690        -1.037984
 H         2.791330        -0.056132        -1.880166
 H         2.159009         1.491281        -1.614184
 H         4.498706         1.216411        -0.277831
 H         3.026687         1.313530         2.303842
 H         4.571804        -0.789745         2.433901
 H         2.725619        -1.798669        -0.541472
 H         1.831427        -1.968703         1.067222
