19
Iteration:  4077
 C         0.266659        -0.420412        -1.015592
 C         1.601247        -0.080942        -0.216493
 C         2.408551         0.975928        -0.891743
 C         3.488166         1.034468         0.185251
 C         2.688313         0.846218         1.476577
 O         1.318831         0.483287         1.077205
 C         3.557948        -0.272951         0.891941
 O         4.754334        -0.809356         1.370939
 C         2.556034        -1.161063         0.141572
 H        -0.089162         0.449709        -1.524227
 H         0.349721        -1.206242        -1.739763
 H        -0.366587        -0.800658        -0.158533
 H         2.692907         0.558797        -1.865326
 H         2.003477         1.975297        -1.075473
 H         4.321987         1.634876         0.196120
 H         2.799062         1.342469         2.494925
 H         4.690612        -0.950218         2.298126
 H         3.064426        -1.784655        -0.582262
 H         2.098295        -1.821152         0.853211
