19
Iteration:   588
 C         0.134095        -0.682306        -0.646782
 C         1.561450        -0.060801        -0.202298
 C         2.508366         0.891134        -1.073763
 C         3.613398         0.907707        -0.056518
 C         2.783223         1.022650         1.237224
 O         1.426682         0.974087         0.887926
 C         3.527594        -0.275324         0.970281
 O         4.635296        -0.858373         1.486199
 C         2.475041        -1.302097         0.376740
 H        -0.502274        -0.752101         0.237744
 H        -0.472114        -0.031448        -1.446609
 H         0.386022        -1.670786        -0.911064
 H         2.858555         0.444298        -2.182459
 H         1.977380         1.806526        -1.267879
 H         4.620441         1.373078        -0.151648
 H         2.957655         1.434524         2.207339
 H         4.521443        -1.374762         2.283677
 H         3.051942        -1.935454        -0.273041
 H         1.911338        -1.900095         1.178009
