19
Iteration:  3459charge 0 multiplicity 1
 C         0.239855        -0.515026        -0.858996
 C         1.600188        -0.054634        -0.273919
 C         2.490806         0.927660        -0.950337
 C         3.549641         1.049920         0.091026
 C         2.712995         0.908910         1.341073
 O         1.330234         0.632158         1.053286
 C         3.532291        -0.270878         0.894475
 O         4.667707        -0.856513         1.544479
 C         2.563456        -1.167057         0.164868
 H        -0.252878         0.315650        -1.398135
 H         0.390265        -1.447690        -1.399673
 H        -0.557187        -0.825649        -0.092377
 H         2.928694         0.570560        -2.013901
 H         1.866597         1.778497        -1.212606
 H         4.629626         1.493322        -0.187816
 H         2.754526         1.410576         2.300316
 H         4.358255        -1.389374         2.364279
 H         3.061412        -1.614262        -0.720533
 H         2.122000        -2.003306         0.828448
