19
Iteration:  4678charge 0 multiplicity 1
 C         0.247415        -0.398545        -0.876516
 C         1.562555        -0.083227        -0.234329
 C         2.565243         0.814315        -0.961934
 C         3.548863         1.164614         0.205509
 C         2.615504         0.973388         1.368174
 O         1.230170         0.660865         0.995844
 C         3.600922        -0.348052         0.868947
 O         4.775822        -0.883350         1.344519
 C         2.505057        -1.302353         0.342235
 H         0.141210        -1.472024        -0.812153
 H        -0.645321         0.048223        -0.394426
 H         0.126800        -0.063056        -1.879209
 H         2.997062         0.370151        -1.971700
 H         2.059867         1.654337        -1.292517
 H         4.588174         1.566401         0.308034
 H         2.642076         1.523610         2.273491
 H         4.905020        -0.864811         2.271638
 H         2.824235        -1.797484        -0.563985
 H         2.054804        -2.006571         0.993411
