19
Iteration:  3143charge 0 multiplicity 1
 C         0.214710        -0.523553        -0.921838
 C         1.596519        -0.102530        -0.232444
 C         2.538904         1.001499        -1.020815
 C         3.501922         1.034620         0.138891
 C         2.730403         0.887077         1.396148
 O         1.345604         0.645194         0.985385
 C         3.494309        -0.291425         0.904379
 O         4.697233        -0.819678         1.459046
 C         2.524524        -1.232464         0.297862
 H        -0.299847         0.388484        -1.319811
 H         0.506328        -1.070691        -1.803940
 H        -0.346055        -1.150636        -0.141235
 H         2.986715         0.447544        -1.936435
 H         2.007946         1.898251        -1.203488
 H         4.442856         1.548803         0.128917
 H         2.826260         1.421966         2.372154
 H         4.593441        -1.119527         2.359867
 H         2.954012        -1.865634        -0.433177
 H         1.964911        -1.742664         1.044062
