19
Iteration:   409
 C         0.171099        -0.335624        -0.714133
 C         1.561349        -0.116673        -0.137577
 C         2.515483         0.607025        -1.112672
 C         3.518626         0.856855        -0.015640
 C         2.755214         0.898081         1.300415
 O         1.412768         0.887808         0.992774
 C         3.540068        -0.331850         0.783091
 O         4.720044        -0.645807         1.533944
 C         2.460165        -1.315236         0.343149
 H        -0.610738        -0.371540         0.095946
 H        -0.049884         0.262828        -1.502992
 H         0.224340        -1.405097        -1.194010
 H         2.864537         0.005791        -1.964691
 H         1.977182         1.538524        -1.517824
 H         4.423509         1.540332        -0.082607
 H         3.139021         1.488826         2.082674
 H         4.613293        -0.993009         2.398818
 H         2.591433        -2.150620        -0.372133
 H         1.980466        -1.686246         1.194470
