19
Iteration:  1496
 C         0.087042        -0.424094        -0.742443
 C         1.478196        -0.044240        -0.204353
 C         2.494519         0.725751        -1.108090
 C         3.591875         0.974484        -0.023317
 C         2.859015         0.873418         1.259085
 O         1.478949         0.661483         1.065132
 C         3.540096        -0.341924         0.867851
 O         4.724470        -0.673016         1.575584
 C         2.377559        -1.229787         0.280990
 H        -0.414328        -0.947001         0.020057
 H        -0.336693         0.542506        -0.988541
 H         0.077167        -1.078431        -1.652737
 H         2.832237        -0.040949        -1.926351
 H         2.082421         1.574709        -1.585669
 H         4.454650         1.567809        -0.206453
 H         3.010446         1.407654         2.189813
 H         4.600043        -0.311327         2.461645
 H         2.814100        -1.758753        -0.611268
 H         2.028895        -1.931617         1.020734
