19
Iteration:   844
 C         0.153991        -0.498131        -0.677695
 C         1.538359        -0.103605        -0.208663
 C         2.485283         0.705994        -1.074038
 C         3.592732         0.979797         0.013630
 C         2.812377         0.947890         1.336096
 O         1.402194         0.841665         0.936119
 C         3.570540        -0.312938         0.865885
 O         4.702603        -0.757038         1.457704
 C         2.431897        -1.219667         0.363015
 H        -0.466802        -0.861322         0.149819
 H        -0.354262         0.279328        -1.205375
 H         0.242192        -1.394643        -1.407159
 H         2.939581         0.149675        -1.841138
 H         2.025200         1.653920        -1.557444
 H         4.501291         1.658469        -0.222774
 H         3.107834         1.327695         2.308690
 H         4.389065        -1.127809         2.270458
 H         2.579961        -2.020910        -0.413411
 H         1.880983        -1.757828         1.120696
