19
Iteration:  2081charge 0 multiplicity 1
 C         0.211395        -0.575102        -0.772412
 C         1.575904        -0.109103        -0.223988
 C         2.551222         0.847956        -0.987089
 C         3.505771         1.098711         0.121730
 C         2.713129         0.977954         1.396142
 O         1.379507         0.670650         1.002047
 C         3.585563        -0.238936         0.878778
 O         4.676323        -0.841601         1.402455
 C         2.529625        -1.189796         0.260549
 H         0.182226        -1.573554        -0.855976
 H        -0.598883        -0.217308        -0.180718
 H         0.082215        -0.151530        -1.781432
 H         2.765502         0.469039        -2.010434
 H         1.895007         1.718709        -1.243859
 H         4.415046         1.805761        -0.014169
 H         2.771237         1.559353         2.299043
 H         4.317696        -1.687856         1.876326
 H         2.833127        -1.847322        -0.563609
 H         1.917315        -1.833744         0.846581
