19
Iteration:  1298charge 0 multiplicity 1
 C         0.148735        -0.583955        -0.658009
 C         1.552530        -0.102373        -0.280421
 C         2.494168         0.881510        -1.094495
 C         3.583196         0.953780        -0.119499
 C         2.771638         0.960918         1.252866
 O         1.400828         0.813176         0.959631
 C         3.563984        -0.292544         0.913153
 O         4.719087        -0.947292         1.591216
 C         2.389858        -1.187008         0.426412
 H        -0.166492        -1.496011        -0.148840
 H        -0.547702         0.148554        -0.454246
 H         0.135224        -0.714167        -1.803517
 H         2.775549         0.575984        -2.176185
 H         2.033387         1.866713        -1.227437
 H         4.298254         1.850930        -0.243069
 H         2.977633         1.606151         2.070544
 H         5.525703        -0.401821         1.891666
 H         2.588745        -1.941160        -0.364381
 H         1.950820        -1.677277         1.289066
