19
Iteration:   447charge 0 multiplicity 1
 C         0.195973        -0.609893        -0.651504
 C         1.542482        -0.086948        -0.275269
 C         2.490284         0.713610        -1.184491
 C         3.588819         0.882961        -0.077152
 C         2.784642         1.130650         1.286309
 O         1.427179         0.877266         1.022714
 C         3.558883        -0.229904         1.001929
 O         4.619740        -0.966666         1.477602
 C         2.513823        -1.122390         0.374983
 H        -0.248702        -1.302393         0.032182
 H        -0.632798         0.249545        -0.842253
 H         0.341486        -1.138900        -1.559718
 H         2.802456         0.160687        -2.138731
 H         2.069782         1.669929        -1.365395
 H         4.381295         1.501160        -0.200298
 H         3.007281         2.060186         1.869156
 H         4.175290        -1.170070         2.353090
 H         2.899747        -1.954717        -0.214721
 H         1.898721        -1.536406         1.287726
