19
Iteration:   114charge 0 multiplicity 1
 C         0.011400        -0.337381        -0.774388
 C         1.452241        -0.059599        -0.235622
 C         2.541572         0.680642        -1.152260
 C         3.611486         0.764997        -0.070198
 C         2.799715         0.888011         1.280410
 O         1.384651         0.662796         1.057125
 C         3.578233        -0.353062         0.897463
 O         4.857005        -0.553166         1.588882
 C         2.420384        -1.232553         0.374401
 H        -0.774986        -0.501119         0.008476
 H        -0.342282         0.498807        -1.434314
 H         0.029309        -1.280659        -1.413101
 H         2.751342         0.140073        -2.042681
 H         2.191454         1.736385        -1.450051
 H         4.615580         1.433421        -0.055521
 H         3.016002         1.545198         2.069009
 H         4.746384        -0.659595         2.532211
 H         2.654808        -1.836151        -0.566766
 H         1.812547        -1.799704         1.108146
