19
Iteration:  4737charge 0 multiplicity 1
 C         0.195222        -0.432529        -0.781762
 C         1.514078        -0.085680        -0.206964
 C         2.455210         0.936401        -0.947779
 C         3.602175         0.971447         0.042790
 C         2.805691         0.775915         1.275519
 O         1.382936         0.598190         1.019822
 C         3.605434        -0.343022         0.811875
 O         4.617574        -0.726288         1.608519
 C         2.513667        -1.186076         0.100509
 H        -0.522194        -1.042138        -0.185291
 H        -0.193405         0.527056        -1.169040
 H         0.661309        -1.076499        -1.607615
 H         2.823147         0.607023        -1.895431
 H         2.002441         2.080197        -0.820280
 H         4.325054         1.819637         0.088233
 H         3.017201         1.215373         2.289737
 H         4.366906        -0.821734         2.575117
 H         2.823976        -1.823796        -0.770586
 H         1.929371        -1.835745         0.836246
