19
Iteration:   969
 C         0.176764        -0.416912        -0.792732
 C         1.518071        -0.145777        -0.229890
 C         2.452601         0.691976        -1.037796
 C         3.527112         0.937143         0.008417
 C         2.803407         0.957738         1.358761
 O         1.434025         0.767094         0.972835
 C         3.552513        -0.329377         0.862857
 O         4.765958        -0.734511         1.439438
 C         2.417026        -1.238507         0.400127
 H        -0.482340        -0.612147         0.098377
 H        -0.322229         0.462490        -1.270494
 H         0.123290        -1.179613        -1.475977
 H         2.957044         0.161781        -1.949591
 H         1.953756         1.581152        -1.415292
 H         4.534282         1.478432        -0.109419
 H         2.833070         1.612678         2.254432
 H         4.656039        -0.593693         2.374156
 H         2.856545        -1.936132        -0.299887
 H         1.865327        -1.729223         1.280970
