19
Iteration:  1738
 C         0.159421        -0.446656        -0.742359
 C         1.480784        -0.043478        -0.170873
 C         2.529818         0.792458        -1.160891
 C         3.554397         0.949672         0.008652
 C         2.760594         0.859778         1.343341
 O         1.373689         0.689738         1.076656
 C         3.611360        -0.319485         0.829025
 O         4.740947        -0.739446         1.543530
 C         2.473811        -1.187827         0.218177
 H        -0.347760        -1.037725         0.106871
 H        -0.490151         0.483639        -0.883085
 H         0.248683        -1.006127        -1.605422
 H         2.786766        -0.056121        -1.938438
 H         2.241379         1.662470        -1.643539
 H         4.315422         1.635673         0.037031
 H         3.020132         1.433530         2.226394
 H         4.374135        -0.607659         2.404888
 H         2.662748        -1.871837        -0.596063
 H         2.056188        -1.849587         0.993889
