19
Iteration:  1436charge 0 multiplicity 1
 C         0.175583        -0.601781        -0.687507
 C         1.511156        -0.013835        -0.224578
 C         2.603994         0.723663        -1.102346
 C         3.526529         1.039333         0.006763
 C         2.791612         1.031726         1.298911
 O         1.395778         0.729258         1.139130
 C         3.591348        -0.274438         0.779613
 O         4.657760        -0.893034         1.453925
 C         2.411928        -1.141916         0.294246
 H        -0.696629        -0.314726         0.045649
 H        -0.256600        -0.010731        -1.574568
 H         0.181902        -1.649963        -1.039940
 H         3.038929         0.068195        -1.780126
 H         2.277536         1.674336        -1.694438
 H         4.389262         1.800409        -0.272736
 H         2.968894         1.632737         2.173099
 H         4.527886        -0.735744         2.358764
 H         2.772019        -1.951851        -0.352708
 H         2.134110        -1.801947         1.193197
