19
Iteration:  2260charge 0 multiplicity 1
 C         0.215572        -0.427206        -0.876605
 C         1.549409        -0.106557        -0.288534
 C         2.549691         0.770919        -1.071157
 C         3.539563         1.024979         0.088764
 C         2.653088         0.876884         1.469101
 O         1.343421         0.623427         1.074712
 C         3.514469        -0.273591         0.918544
 O         4.729206        -0.689985         1.419906
 C         2.535850        -1.221596         0.296426
 H         0.203151         0.143716        -1.833837
 H         0.194620        -1.463760        -1.053897
 H        -0.558265        -0.093387        -0.286745
 H         2.939830         0.196719        -1.870146
 H         1.956698         1.759484        -1.326675
 H         4.449258         1.683491         0.005453
 H         2.841581         1.491426         2.324045
 H         4.688904        -1.508698         2.023039
 H         3.152912        -1.850870        -0.399221
 H         1.815136        -1.773541         0.993855
