19
Iteration:  4761
 C         0.225577        -0.523259        -0.872959
 C         1.555999        -0.083182        -0.262316
 C         2.448274         0.998250        -1.016995
 C         3.486402         1.013600         0.073961
 C         2.738035         0.906763         1.447391
 O         1.393964         0.719709         1.053788
 C         3.548994        -0.284066         0.864784
 O         4.682175        -0.853957         1.526047
 C         2.571700        -1.261839         0.153422
 H        -0.350946        -0.632973         0.105255
 H        -0.297360         0.223148        -1.486435
 H         0.332309        -1.589807        -1.201358
 H         3.021039         0.607316        -1.829635
 H         1.914660         2.072334        -1.133823
 H         4.525147         1.470136         0.040668
 H         2.846091         1.501350         2.318288
 H         4.371226        -1.630013         2.074091
 H         3.003852        -1.790468        -0.727943
 H         2.055438        -2.030900         0.842556
