19
Iteration:  4473
 C         0.105681        -0.443566        -0.721238
 C         1.526407        -0.067509        -0.249777
 C         2.680666         0.824620        -1.065955
 C         3.550685         0.953993         0.126723
 C         2.713846         0.858657         1.349097
 O         1.308049         0.683657         0.911608
 C         3.528602        -0.331700         0.928362
 O         4.699348        -0.680722         1.563995
 C         2.530686        -1.201124         0.154728
 H        -0.148601        -0.107040        -1.737074
 H         0.034085        -1.549082        -0.675139
 H        -0.533967         0.056520        -0.034339
 H         2.988565         0.257250        -1.882952
 H         2.177227         1.807720        -1.375965
 H         4.564891         1.452925         0.123721
 H         2.862127         1.412747         2.314159
 H         4.584417        -1.417296         2.195605
 H         3.140871        -1.770652        -0.601797
 H         2.109073        -2.060291         0.725439
