19
Iteration:  1037
 C         0.156198        -0.570406        -0.629016
 C         1.557842        -0.042594        -0.196360
 C         2.490248         0.787957        -1.108606
 C         3.586608         0.948342        -0.018941
 C         2.757473         0.950917         1.286014
 O         1.392512         0.865417         0.943844
 C         3.573859        -0.330174         0.886306
 O         4.679929        -0.739232         1.608292
 C         2.443199        -1.248913         0.267733
 H        -0.329784        -0.668088         0.359169
 H        -0.420067         0.161212        -1.122000
 H         0.178423        -1.507071        -1.253995
 H         2.705687         0.142269        -2.102033
 H         2.035289         1.703672        -1.391896
 H         4.492011         1.552274        -0.171641
 H         3.147328         1.451885         2.141012
 H         4.749384        -1.687373         1.551949
 H         2.891975        -1.742618        -0.673816
 H         2.143755        -2.109078         0.914848
