19
Iteration:  1489charge 0 multiplicity 1
 C         0.060135        -0.412508        -0.739205
 C         1.483346        -0.073992        -0.180963
 C         2.503887         0.767116        -1.066006
 C         3.578541         0.929257        -0.062407
 C         2.815473         0.910202         1.251965
 O         1.439079         0.710672         1.043112
 C         3.605220        -0.372566         0.879509
 O         4.739183        -0.691825         1.602898
 C         2.428792        -1.282756         0.206778
 H        -0.595259        -0.818697         0.106798
 H        -0.577234         0.448265        -1.168243
 H         0.080740        -1.126076        -1.496075
 H         2.844267         0.144978        -1.935078
 H         1.940031         1.664796        -1.425901
 H         4.592686         1.491361         0.006425
 H         3.042878         1.561300         2.085578
 H         4.713319        -0.243740         2.419583
 H         2.903109        -1.881037        -0.555007
 H         2.042585        -1.878288         1.076373
