19
Iteration:  3371charge 0 multiplicity 1
 C         0.219660        -0.367548        -0.934819
 C         1.567673        -0.111299        -0.309646
 C         2.475212         0.892641        -1.005193
 C         3.543146         0.975810         0.048900
 C         2.663360         0.899317         1.422187
 O         1.317019         0.568616         1.071538
 C         3.606524        -0.304950         0.909211
 O         4.694131        -0.754658         1.659666
 C         2.529157        -1.249125         0.195442
 H        -0.296710         0.659495        -0.972191
 H         0.344593        -0.629812        -1.962573
 H        -0.317946        -1.078442        -0.229581
 H         2.772487         0.415242        -2.045295
 H         1.874519         1.778542        -1.245230
 H         4.434817         1.682493         0.055328
 H         2.781025         1.520924         2.338983
 H         5.536102        -1.018039         1.106919
 H         2.992503        -1.895330        -0.584816
 H         1.977164        -2.038394         0.866714
