19
Iteration:   992
 C         0.182866        -0.522951        -0.706704
 C         1.504619        -0.097963        -0.172064
 C         2.489306         0.792162        -1.089987
 C         3.577208         1.034392        -0.100681
 C         2.764059         0.932688         1.230578
 O         1.340024         0.793679         1.025480
 C         3.639855        -0.283841         0.878457
 O         4.726530        -0.860657         1.509503
 C         2.479160        -1.181006         0.399353
 H        -0.655465        -0.571700         0.058278
 H        -0.212384         0.075473        -1.520470
 H         0.318748        -1.467813        -1.193649
 H         2.956250         0.194018        -2.039410
 H         2.032348         1.664268        -1.462867
 H         4.414249         1.863136        -0.023830
 H         2.924808         1.498695         2.131140
 H         4.385777        -1.461814         2.221925
 H         2.691408        -1.951284        -0.408417
 H         1.977981        -1.605018         1.335269
