19
Iteration:  1563charge 0 multiplicity 1
 C         0.183310        -0.568096        -0.753558
 C         1.499343        -0.046058        -0.249888
 C         2.471831         0.765769        -1.119863
 C         3.590870         0.937210         0.008112
 C         2.760643         0.970516         1.319453
 O         1.403472         0.875342         1.001663
 C         3.510981        -0.324604         0.940871
 O         4.794335        -0.778697         1.446877
 C         2.398457        -1.201430         0.441875
 H         0.127894        -1.612578        -0.382733
 H        -0.665839         0.078157        -0.325446
 H        -0.044110        -0.620026        -1.776678
 H         2.793321         0.049186        -2.015682
 H         2.163703         1.694695        -1.483469
 H         4.668799         1.409340         0.045222
 H         3.117102         1.648092         2.088863
 H         4.779036        -1.743870         1.730233
 H         2.703499        -1.906736        -0.347620
 H         1.747938        -1.685234         1.173268
