19
Iteration:   269charge 0 multiplicity 1
 C         0.058251        -0.335912        -0.720562
 C         1.541608        -0.227440        -0.176693
 C         2.572597         0.581278        -1.078726
 C         3.637873         0.986288        -0.034201
 C         2.796420         1.030934         1.202812
 O         1.403337         0.770646         1.002307
 C         3.558285        -0.295627         0.845822
 O         4.667006        -0.685019         1.530092
 C         2.439772        -1.301191         0.391089
 H        -0.467473        -1.265016        -0.330303
 H        -0.475684         0.510885        -0.426237
 H         0.088947        -0.088392        -1.837941
 H         3.042529        -0.022366        -1.924106
 H         2.069546         1.386134        -1.587935
 H         4.520256         1.400895        -0.304914
 H         3.042806         1.438833         2.204667
 H         4.480675        -0.849422         2.490442
 H         2.858700        -2.087329        -0.330386
 H         1.997777        -1.806546         1.297867
