19
Iteration:  2766charge 0 multiplicity 1
 C         0.362521        -0.617331        -0.822053
 C         1.599475        -0.037164        -0.226989
 C         2.575214         0.917747        -0.958051
 C         3.543514         1.074863         0.117012
 C         2.713800         0.942742         1.391320
 O         1.357133         0.708610         1.012645
 C         3.466894        -0.248884         0.801977
 O         4.559655        -0.848678         1.416805
 C         2.531074        -1.286520         0.278064
 H        -0.263977         0.045748        -1.465670
 H         0.679048        -1.419670        -1.645520
 H        -0.475384        -0.903659        -0.064557
 H         3.003743         0.443868        -1.844364
 H         1.932861         1.887454        -1.279444
 H         4.487426         1.639399         0.054721
 H         2.784667         1.508343         2.349845
 H         4.330433        -0.965748         2.404081
 H         2.771392        -1.936009        -0.536049
 H         2.108802        -1.759197         1.104101
