19
Iteration:  4184
 C         0.223110        -0.336214        -0.889073
 C         1.560250        -0.115087        -0.241139
 C         2.388394         0.949445        -0.951347
 C         3.503912         1.087110         0.151718
 C         2.704755         0.694399         1.386310
 O         1.360361         0.538949         1.115497
 C         3.611196        -0.366357         0.801252
 O         4.666032        -0.705176         1.539873
 C         2.663262        -1.229087         0.058403
 H        -0.397394         0.455996        -0.495116
 H         0.197535        -0.420945        -1.963675
 H        -0.337532        -1.206279        -0.583017
 H         2.935085         0.458824        -1.891385
 H         1.921402         1.831620        -1.263244
 H         4.096605         1.887786         0.285382
 H         2.877934         1.018272         2.427171
 H         4.492560        -0.641315         2.467491
 H         3.128227        -1.533849        -0.881894
 H         2.344605        -2.164576         0.548954
