19
Iteration:  3950charge 0 multiplicity 1
 C         0.263983        -0.456713        -1.004958
 C         1.538444         0.000507        -0.244975
 C         2.512617         0.838498        -0.915967
 C         3.533357         1.028652         0.189949
 C         2.638011         0.829736         1.471352
 O         1.277403         0.630403         1.100397
 C         3.485208        -0.289592         0.963744
 O         4.834583        -0.749914         1.286839
 C         2.503405        -1.239076         0.201634
 H        -0.447656         0.217986        -0.557630
 H         0.462503        -0.571093        -2.055403
 H        -0.012364        -1.452144        -0.549820
 H         3.109135         0.351074        -1.730396
 H         2.236559         1.916713        -1.239509
 H         4.360280         1.620427         0.149809
 H         2.660679         1.366831         2.476558
 H         4.756225        -1.107398         2.177578
 H         2.984894        -1.739425        -0.703270
 H         1.933283        -1.990275         0.831994
