19
Iteration:  3609
 C         0.145841        -0.453965        -0.811266
 C         1.632124        -0.119432        -0.246179
 C         2.498424         0.909091        -1.010629
 C         3.529917         1.040837         0.132329
 C         2.713012         0.806722         1.364868
 O         1.321071         0.650383         1.006747
 C         3.607066        -0.327308         0.852865
 O         4.649838        -0.748200         1.558724
 C         2.619568        -1.227569         0.121889
 H        -0.149868         0.545061        -1.235730
 H         0.115682        -1.234049        -1.515602
 H        -0.398021        -0.670792         0.161866
 H         3.003558         0.596825        -1.885064
 H         1.985330         1.874422        -1.266946
 H         4.248165         1.920515         0.130259
 H         2.917907         1.187126         2.317108
 H         4.191943        -1.217002         2.333187
 H         2.935602        -1.730769        -0.788768
 H         2.204221        -2.006390         0.781677
