19
Iteration:  2091charge 0 multiplicity 1
 C         0.257230        -0.584124        -0.828245
 C         1.559509        -0.132097        -0.209408
 C         2.484387         0.861487        -0.982760
 C         3.499093         1.174653         0.161464
 C         2.746652         0.912375         1.376027
 O         1.410755         0.727331         1.011410
 C         3.521716        -0.292197         0.823634
 O         4.704975        -0.859727         1.365781
 C         2.449377        -1.225089         0.285415
 H         0.236667        -1.618173        -0.860647
 H        -0.519304        -0.273390        -0.178055
 H         0.124907        -0.128572        -1.841152
 H         3.152977         0.399556        -1.849033
 H         1.937705         1.746788        -1.272614
 H         4.313602         1.994159         0.181454
 H         2.854820         1.576004         2.223253
 H         4.369680        -1.258201         2.247248
 H         2.874217        -1.891329        -0.442974
 H         2.127159        -1.765309         1.164814
