19
Iteration:  4052
 C         0.132893        -0.348274        -0.824402
 C         1.635624        -0.149305        -0.235464
 C         2.522436         1.029056        -0.987430
 C         3.429003         1.107529         0.187640
 C         2.657794         0.713546         1.431191
 O         1.340873         0.541301         0.996709
 C         3.565282        -0.349241         0.794085
 O         4.764449        -0.713689         1.533744
 C         2.582094        -1.304294         0.096172
 H        -0.257771         0.680162        -0.782207
 H         0.065620        -0.729120        -1.852936
 H        -0.265981        -1.048198        -0.184027
 H         3.012790         0.663169        -2.011499
 H         2.023634         1.917581        -1.279288
 H         4.373713         1.791651         0.310732
 H         2.784362         1.177014         2.409595
 H         4.435638        -0.947465         2.433854
 H         2.963604        -1.717564        -0.835223
 H         2.416689        -2.180361         0.688727
