19
Iteration:  2140
 C         0.168624        -0.391415        -0.875570
 C         1.550125        -0.141727        -0.219429
 C         2.471952         0.865669        -1.001695
 C         3.515612         0.995175         0.074624
 C         2.751445         0.905534         1.331176
 O         1.356109         0.630351         1.062332
 C         3.535334        -0.350571         0.949402
 O         4.725510        -0.697447         1.569248
 C         2.543134        -1.304674         0.214980
 H         0.059465        -1.450919        -1.352985
 H        -0.589509        -0.267443        -0.083968
 H         0.031126         0.303657        -1.682827
 H         2.783873         0.336455        -1.833825
 H         1.906399         1.886957        -1.064241
 H         4.332930         1.612098        -0.010326
 H         2.910803         1.505512         2.257252
 H         5.300208        -0.845691         0.830815
 H         3.088761        -1.614067        -0.723241
 H         1.972242        -2.088871         0.816467
