19
Iteration:  4645
 C         0.285309        -0.563457        -0.983153
 C         1.516155         0.015384        -0.178349
 C         2.452147         0.900012        -1.021882
 C         3.595772         0.987549         0.120643
 C         2.766260         0.834489         1.454425
 O         1.400364         0.712392         1.064818
 C         3.485625        -0.317544         0.886601
 O         4.690461        -0.759372         1.427279
 C         2.424786        -1.180201         0.300971
 H         0.608541        -1.605661        -1.068940
 H        -0.676483        -0.594408        -0.415932
 H         0.121625        -0.229888        -1.983483
 H         2.918287         0.414818        -1.981240
 H         1.885067         1.775430        -1.091739
 H         4.612610         1.557613         0.127350
 H         3.008431         1.599809         2.158576
 H         4.522050        -1.589939         1.928964
 H         2.923107        -1.672127        -0.515293
 H         1.848111        -1.767903         0.948599
