19
Iteration:  2364charge 0 multiplicity 1
 C         0.215642        -0.571630        -0.860967
 C         1.520314        -0.100834        -0.245641
 C         2.502073         0.827303        -1.063089
 C         3.526012         1.025269         0.084679
 C         2.688838         0.936078         1.432989
 O         1.348118         0.757957         0.993134
 C         3.515510        -0.279234         1.016885
 O         4.749604        -0.815413         1.495306
 C         2.573977        -1.150640         0.225435
 H        -0.637657         0.003171        -0.516367
 H         0.274826        -0.494749        -2.001714
 H         0.018446        -1.677072        -0.582323
 H         2.800668         0.325617        -2.059030
 H         2.192563         1.750049        -1.439488
 H         4.372895         1.689206         0.027430
 H         2.896946         1.564226         2.286266
 H         4.516252        -1.618555         1.936855
 H         2.935978        -1.798608        -0.547896
 H         2.096616        -1.809348         0.929680
