19
Iteration:  1886charge 0 multiplicity 1
 C         0.151367        -0.334031        -0.740501
 C         1.556348        -0.092229        -0.206462
 C         2.504843         0.814833        -1.078121
 C         3.470468         1.053890         0.021316
 C         2.743392         0.831801         1.360439
 O         1.406674         0.562855         1.107449
 C         3.573689        -0.315900         0.858854
 O         4.665450        -0.767559         1.539510
 C         2.542467        -1.246938         0.132846
 H        -0.576417        -0.269652         0.074351
 H        -0.154061         0.396673        -1.575036
 H         0.006479        -1.453034        -1.135284
 H         2.961940         0.182328        -1.770827
 H         2.045375         1.715428        -1.683964
 H         4.313908         1.651338        -0.022151
 H         2.993406         1.461635         2.219232
 H         5.069895        -0.035483         2.070793
 H         3.008653        -1.784088        -0.737916
 H         2.202162        -1.893153         0.960717
