19
Iteration:  2402
 C         0.196489        -0.384194        -0.907970
 C         1.594249        -0.116504        -0.238059
 C         2.531388         0.825625        -1.084266
 C         3.520285         0.991791         0.079109
 C         2.704340         0.781200         1.435741
 O         1.362302         0.651216         1.021290
 C         3.538617        -0.270613         0.871304
 O         4.681894        -0.704180         1.517348
 C         2.531000        -1.286636         0.288895
 H        -0.567787         0.410526        -0.469130
 H         0.238892        -0.238654        -1.987007
 H        -0.166225        -1.387518        -0.788044
 H         3.003198         0.307553        -1.854903
 H         1.764460         1.647740        -1.377527
 H         4.403349         1.626599         0.068302
 H         2.822822         1.223844         2.448804
 H         4.990255         0.010760         2.152998
 H         2.962010        -2.116147        -0.372237
 H         1.984365        -1.886610         1.149581
