19
Iteration:  4447
 C         0.163535        -0.372811        -0.787751
 C         1.555427        -0.131138        -0.269870
 C         2.526509         0.870169        -1.056509
 C         3.584158         0.960815         0.018342
 C         2.774555         0.828433         1.337258
 O         1.373331         0.621425         0.970399
 C         3.556390        -0.326036         0.906939
 O         4.657299        -0.624262         1.671611
 C         2.477860        -1.283857         0.171310
 H         0.024206        -0.035855        -1.829383
 H        -0.065690        -1.411365        -0.691171
 H        -0.432276         0.196439        -0.031757
 H         2.850316         0.505064        -2.081192
 H         2.044864         1.752312        -1.243703
 H         4.379900         1.674137        -0.005971
 H         3.033292         1.317180         2.249488
 H         4.472044        -1.365730         2.257285
 H         2.980188        -1.823671        -0.621720
 H         2.100874        -2.064541         0.818016
