19
Iteration:  3681charge 0 multiplicity 1
 C         0.301447        -0.521192        -1.029956
 C         1.527105        -0.085885        -0.187754
 C         2.447052         0.926947        -0.888163
 C         3.526047         1.032739         0.162345
 C         2.721568         0.882492         1.440722
 O         1.347488         0.644620         1.019072
 C         3.504274        -0.328969         0.870341
 O         4.765035        -0.816299         1.359750
 C         2.449436        -1.191745         0.287737
 H         0.187074         0.358419        -1.674769
 H         0.583619        -1.429332        -1.622171
 H        -0.440395        -0.657071        -0.303164
 H         2.816194         0.559489        -1.906518
 H         2.000711         1.973391        -1.043433
 H         4.339049         1.887748         0.129207
 H         2.869724         1.269589         2.411908
 H         4.715032        -0.915497         2.374192
 H         2.903048        -1.847906        -0.508618
 H         2.038249        -1.786354         1.142460
