19
Iteration:  2399charge 0 multiplicity 1
 C         0.222725        -0.403473        -0.888785
 C         1.613370        -0.125713        -0.218131
 C         2.549874         0.853243        -1.073508
 C         3.515824         0.986371         0.094255
 C         2.705042         0.800807         1.404274
 O         1.348733         0.642838         1.024579
 C         3.517112        -0.270942         0.877638
 O         4.679329        -0.700852         1.494398
 C         2.514023        -1.299152         0.286882
 H        -0.569411         0.325033        -0.471209
 H         0.210265        -0.177984        -2.024131
 H        -0.275382        -1.400204        -0.774594
 H         3.036417         0.244122        -1.889551
 H         1.921753         1.619500        -1.360616
 H         4.480340         1.652156         0.047798
 H         2.809329         1.207479         2.403419
 H         4.880854        -0.080626         2.159920
 H         2.899331        -2.043667        -0.413408
 H         2.040528        -1.673175         1.154004
