19
Iteration:  4667
 C         0.284714        -0.512063        -0.937797
 C         1.568591        -0.102692        -0.214195
 C         2.551405         0.910439        -0.987020
 C         3.534688         1.021977         0.161917
 C         2.638966         0.945908         1.411979
 O         1.273381         0.722223         1.049054
 C         3.497533        -0.296045         0.919564
 O         4.819069        -0.880451         1.328086
 C         2.447583        -1.198442         0.293528
 H         0.177803        -1.594678        -1.018997
 H        -0.532794        -0.149617        -0.288349
 H         0.228069        -0.116814        -1.928524
 H         3.157640         0.376458        -1.815826
 H         1.998343         1.739748        -1.275087
 H         4.449741         1.660513         0.054540
 H         2.830349         1.270954         2.399442
 H         4.740842        -1.059197         2.299470
 H         2.836301        -1.937270        -0.392908
 H         1.889941        -1.642891         1.078973
