19
Iteration:  2862
 C         0.173694        -0.458788        -0.908756
 C         1.517286        -0.122845        -0.239761
 C         2.579911         0.837231        -1.040258
 C         3.633985         0.961513         0.111694
 C         2.647683         0.902753         1.312177
 O         1.301392         0.670417         0.988609
 C         3.565047        -0.302937         0.966271
 O         4.764780        -0.762602         1.553254
 C         2.490341        -1.189142         0.261775
 H        -0.571890         0.142699        -0.530353
 H         0.040390        -0.364156        -1.974292
 H        -0.208020        -1.487581        -0.626742
 H         2.887274         0.437333        -1.930498
 H         2.145598         1.884931        -1.193138
 H         4.372367         1.835961         0.014270
 H         2.822927         1.620557         2.113891
 H         4.676073        -1.310968         2.346115
 H         2.927061        -1.760188        -0.648908
 H         2.095065        -1.816002         1.130181
