19
Iteration:  3407charge 0 multiplicity 1
 C         0.288290        -0.478130        -0.938050
 C         1.617106        -0.082091        -0.220816
 C         2.540347         0.852781        -0.977248
 C         3.503464         1.040982         0.190370
 C         2.677503         0.859086         1.474209
 O         1.317695         0.747506         1.054551
 C         3.509360        -0.275993         0.828985
 O         4.672014        -0.843107         1.449498
 C         2.499760        -1.299899         0.209503
 H        -0.133663         0.324224        -1.507366
 H         0.308037        -1.495624        -1.561034
 H        -0.558542        -0.712320        -0.300480
 H         3.092383         0.313489        -1.793939
 H         1.978929         1.687958        -1.343730
 H         4.402942         1.749850         0.197283
 H         2.868723         1.348005         2.404390
 H         5.266839        -0.078414         1.773319
 H         2.910646        -1.787733        -0.734330
 H         1.932014        -1.980948         0.929599
