19
Iteration:  2662
 C         0.190899        -0.450994        -0.905981
 C         1.495807        -0.143536        -0.236109
 C         2.543742         0.792562        -0.966874
 C         3.545623         0.979266         0.070488
 C         2.701318         0.890993         1.385912
 O         1.324859         0.695375         1.014023
 C         3.551837        -0.276756         0.899939
 O         4.758589        -0.784027         1.538431
 C         2.521764        -1.210193         0.221868
 H        -0.491321         0.460647        -0.855169
 H         0.330165        -0.614902        -1.911710
 H        -0.318743        -1.333217        -0.653266
 H         2.939101         0.255062        -1.927091
 H         2.163542         1.780005        -1.196690
 H         4.408878         1.790633         0.092339
 H         2.766661         1.584898         2.237963
 H         4.722976        -0.395198         2.452177
 H         2.961220        -1.753757        -0.672626
 H         2.108839        -2.094226         0.893780
