19
Iteration:  4360
 C         0.231612        -0.498248        -0.816630
 C         1.595744        -0.121562        -0.266855
 C         2.570358         0.902930        -0.996791
 C         3.546556         1.011270         0.171654
 C         2.627418         0.819708         1.349423
 O         1.305351         0.735296         1.000098
 C         3.530004        -0.249688         0.896082
 O         4.666419        -0.874289         1.487216
 C         2.521142        -1.180782         0.223662
 H         0.214710        -1.502627        -1.202496
 H        -0.468313        -0.579858        -0.022824
 H        -0.159272         0.048111        -1.706826
 H         3.041357         0.465721        -1.927065
 H         2.115577         1.791802        -1.191639
 H         4.455061         1.741005         0.270111
 H         2.728833         1.316657         2.311658
 H         5.468381        -0.407230         1.362488
 H         2.873721        -1.830147        -0.593493
 H         2.237866        -1.783260         1.105806
