19
Iteration:  3641charge 0 multiplicity 1
 C         0.170913        -0.361087        -0.865255
 C         1.578732        -0.084531        -0.269019
 C         2.563912         0.824690        -1.022276
 C         3.509255         0.992334         0.144034
 C         2.704186         0.829102         1.405052
 O         1.321873         0.504356         1.039133
 C         3.579747        -0.329489         0.969646
 O         4.729494        -0.641160         1.500298
 C         2.531702        -1.178394         0.144622
 H        -0.210248         0.394386        -1.613447
 H         0.035389        -1.283638        -1.354755
 H        -0.601192        -0.272971        -0.031782
 H         3.041901         0.220128        -1.704710
 H         2.170624         1.829693        -1.376506
 H         4.322279         1.824863         0.161013
 H         2.770038         1.342587         2.313017
 H         4.701317        -1.462258         1.939917
 H         2.905831        -1.548623        -0.821170
 H         1.922453        -1.925959         0.707268
