19
Iteration:  3300
 C         0.250909        -0.566457        -0.851792
 C         1.567819        -0.073441        -0.240374
 C         2.456191         0.914450        -1.004655
 C         3.570922         1.043539         0.147640
 C         2.639406         0.915553         1.401126
 O         1.370632         0.711731         0.936894
 C         3.536817        -0.266619         0.961338
 O         4.699868        -0.854478         1.504722
 C         2.561380        -1.196251         0.198952
 H        -0.657070        -0.069392        -0.478909
 H         0.172724        -0.316248        -2.021146
 H         0.058271        -1.575597        -0.561613
 H         2.882355         0.614992        -1.922770
 H         2.002013         1.990819        -1.236483
 H         4.692121         1.597101         0.128084
 H         2.747330         1.446057         2.378740
 H         4.303171        -1.701124         1.954100
 H         3.001843        -1.807747        -0.595090
 H         2.207375        -1.897550         0.870261
