19
Iteration:  1796charge 0 multiplicity 1
 C         0.157920        -0.475995        -0.768103
 C         1.520697        -0.108595        -0.182295
 C         2.501161         0.827772        -1.119721
 C         3.536527         1.080833        -0.022017
 C         2.774462         0.950773         1.279851
 O         1.392661         0.671169         1.060842
 C         3.595298        -0.299286         0.835269
 O         4.636461        -0.879620         1.618532
 C         2.486577        -1.198701         0.338370
 H         0.072593        -1.530817        -0.452772
 H        -0.611770         0.185906        -0.474484
 H         0.245676        -0.608694        -1.925817
 H         2.818639         0.378485        -2.059198
 H         1.961100         1.725154        -1.406973
 H         4.384326         1.896308        -0.139585
 H         3.000287         1.465413         2.223469
 H         5.501269        -0.726551         1.113285
 H         2.750321        -1.925256        -0.423162
 H         2.073225        -1.607503         1.275908
