19
Iteration:    44
 C         0.031244        -0.712776        -0.765038
 C         1.463755        -0.070944        -0.195691
 C         2.545218         0.780551        -1.113252
 C         3.619616         0.946026        -0.001110
 C         2.883386         1.086963         1.235880
 O         1.486785         0.838910         0.979889
 C         3.530644        -0.213802         0.948508
 O         4.697435        -0.889270         1.495685
 C         2.403328        -1.097774         0.423618
 H        -0.090084        -1.579125        -0.128778
 H        -0.872809        -0.110735        -0.629893
 H         0.172652        -0.984785        -1.801222
 H         2.892109         0.139724        -1.970857
 H         2.105054         1.685849        -1.533749
 H         4.436397         1.534023        -0.085383
 H         3.079123         1.739924         2.108110
 H         4.438632        -1.650863         1.983260
 H         2.831729        -1.792605        -0.288919
 H         1.878314        -1.540619         1.268777
