19
Iteration:  1781
 C         0.221197        -0.413239        -0.655324
 C         1.619885        -0.141313        -0.225060
 C         2.419839         0.852987        -1.067753
 C         3.511359         0.980702        -0.032246
 C         2.746445         0.855530         1.300451
 O         1.378647         0.720345         0.924319
 C         3.543072        -0.289054         0.847238
 O         4.636566        -0.829176         1.615939
 C         2.572257        -1.261345         0.307805
 H        -0.346023        -1.369655        -0.410120
 H        -0.340623         0.477212        -0.209298
 H        -0.033332        -0.254000        -1.653811
 H         2.839757         0.359841        -2.075533
 H         1.874816         1.766713        -1.227954
 H         4.345141         1.573965        -0.124221
 H         2.915421         1.511814         2.140386
 H         5.407620        -0.296769         1.569169
 H         3.005205        -1.919357        -0.447335
 H         2.016666        -1.884392         1.022085
