19
Iteration:  3168charge 0 multiplicity 1
 C         0.314264        -0.584676        -0.851195
 C         1.601898        -0.085556        -0.209217
 C         2.506509         0.886536        -0.933862
 C         3.514932         1.036695         0.153474
 C         2.644929         0.919371         1.394357
 O         1.317473         0.779903         0.980005
 C         3.537364        -0.279678         0.891206
 O         4.674831        -0.879661         1.482756
 C         2.547785        -1.161007         0.142259
 H        -0.091427         0.093665        -1.498385
 H         0.548726        -1.588692        -1.405797
 H        -0.253411        -0.792656         0.085014
 H         2.881176         0.434694        -1.843283
 H         1.951941         1.936741        -1.091270
 H         4.424043         1.591040        -0.089230
 H         2.744054         1.424242         2.337448
 H         4.363596        -1.611143         2.124624
 H         2.956172        -1.475385        -0.825911
 H         2.122724        -1.947790         0.686769
