19
Iteration:  3436
 C         0.238102        -0.586277        -0.860939
 C         1.609692        -0.033189        -0.249975
 C         2.548393         0.953014        -1.007631
 C         3.534129         1.016082         0.162821
 C         2.654770         0.901930         1.388418
 O         1.333831         0.630722         0.989170
 C         3.545170        -0.248877         0.927138
 O         4.663967        -0.933585         1.405873
 C         2.530056        -1.133842         0.252568
 H        -0.111819         0.264646        -1.515851
 H         0.419203        -1.551935        -1.194965
 H        -0.630439        -0.690619        -0.065401
 H         3.049596         0.567374        -2.030310
 H         2.087528         1.911424        -1.367539
 H         4.291344         1.915726         0.479108
 H         2.893239         1.520223         2.280704
 H         4.791402        -0.741375         2.327805
 H         3.010748        -1.723730        -0.522117
 H         1.847383        -1.817416         0.861054
