19
Iteration:  3811charge 0 multiplicity 1
 C         0.292017        -0.413913        -1.010352
 C         1.565069        -0.121420        -0.206379
 C         2.454987         0.887577        -0.945420
 C         3.450390         1.041528         0.145180
 C         2.674466         0.842625         1.533727
 O         1.312534         0.611919         1.019374
 C         3.580996        -0.240847         0.908923
 O         4.767382        -0.842136         1.332309
 C         2.537658        -1.198224         0.268368
 H        -0.305532         0.525475        -0.969154
 H         0.577534        -0.985534        -1.915874
 H        -0.403118        -1.102143        -0.586115
 H         2.935793         0.472929        -1.868976
 H         2.033821         1.787590        -1.116331
 H         4.265534         1.736593         0.333596
 H         2.815747         1.465355         2.432403
 H         4.671039        -0.783720         2.266053
 H         2.931760        -1.858324        -0.508299
 H         2.070069        -1.904869         0.900533
