19
Iteration:  3377charge 0 multiplicity 1
 C         0.229779        -0.357637        -0.928060
 C         1.588023        -0.059948        -0.254171
 C         2.475813         0.873019        -1.025612
 C         3.561744         0.948249         0.045305
 C         2.669872         0.896714         1.437354
 O         1.306674         0.539576         1.050141
 C         3.560197        -0.253619         0.916361
 O         4.725925        -0.796063         1.646272
 C         2.517814        -1.253083         0.216540
 H        -0.378181         0.494617        -1.241149
 H         0.277587        -0.754997        -2.001893
 H        -0.401522        -0.973382        -0.324932
 H         2.741228         0.427483        -1.912784
 H         1.890388         1.828149        -1.178984
 H         4.387314         1.583572        -0.020032
 H         2.726548         1.527289         2.305089
 H         5.506915        -0.655444         1.096194
 H         3.039060        -1.741099        -0.609220
 H         1.986500        -1.922572         0.795456
