19
Iteration:  1580
 C         0.256510        -0.538275        -0.645186
 C         1.503044        -0.050656        -0.104248
 C         2.589057         0.708253        -1.070553
 C         3.599890         0.943069        -0.034529
 C         2.828203         0.936918         1.282272
 O         1.404959         0.795030         1.007115
 C         3.472087        -0.317302         0.760284
 O         4.647066        -0.703719         1.465545
 C         2.387850        -1.194157         0.348646
 H        -0.061735        -1.530594        -0.364009
 H        -0.619384        -0.024407        -0.366632
 H         0.387510        -0.374450        -1.811945
 H         3.000336         0.179516        -1.849489
 H         2.074052         1.683906        -1.466011
 H         4.392067         1.560062        -0.278058
 H         3.048283         1.444032         2.212662
 H         4.270737        -1.478062         1.975407
 H         2.581302        -1.938627        -0.445465
 H         1.996301        -1.584006         1.316194
