19
Iteration:  3583
 C         0.238555        -0.554833        -0.881937
 C         1.603968        -0.047794        -0.229971
 C         2.433816         1.012938        -1.018966
 C         3.569370         0.990326         0.075079
 C         2.699624         0.937335         1.370652
 O         1.381562         0.646837         1.077651
 C         3.545713        -0.307833         0.922138
 O         4.665927        -0.867187         1.517443
 C         2.530443        -1.215210         0.167873
 H        -0.410532         0.270244        -1.031270
 H         0.505295        -1.058904        -1.852677
 H        -0.113716        -1.321835        -0.284806
 H         2.727529         0.673209        -2.061121
 H         2.045828         2.054909        -1.229421
 H         4.513622         1.557627         0.003068
 H         2.707982         1.395959         2.418532
 H         4.484205        -0.776057         2.520959
 H         2.875135        -1.829341        -0.724903
 H         1.986698        -1.978814         0.791604
