19
Iteration:  3844charge 0 multiplicity 1
 C         0.288914        -0.545523        -0.894706
 C         1.586385        -0.037223        -0.203404
 C         2.507764         1.048094        -0.965014
 C         3.505197         1.080387         0.202467
 C         2.709648         0.834507         1.491379
 O         1.307162         0.595376         1.009481
 C         3.481873        -0.287631         0.882528
 O         4.714902        -0.877580         1.332312
 C         2.535788        -1.212082         0.215043
 H        -0.246716        -0.051226        -1.716832
 H         0.493572        -1.464340        -1.477347
 H        -0.347465        -0.848807        -0.118288
 H         2.942718         0.604065        -1.886348
 H         2.187396         1.969843        -1.205035
 H         4.338248         1.700944         0.267530
 H         2.799892         1.403257         2.463146
 H         4.762104        -0.632403         2.250417
 H         2.960618        -1.700770        -0.664665
 H         1.905769        -1.793460         0.804160
