19
Iteration:  1045
 C         0.148045        -0.513578        -0.628389
 C         1.518784        -0.092081        -0.262220
 C         2.546103         0.769030        -1.082597
 C         3.561069         0.960404        -0.013567
 C         2.789158         0.944103         1.246572
 O         1.350272         0.822905         0.970173
 C         3.617181        -0.302176         0.830543
 O         4.711679        -0.726569         1.648286
 C         2.454972        -1.298139         0.281413
 H        -0.377422        -0.843172         0.347227
 H        -0.546912         0.253208        -1.089243
 H         0.057364        -1.276342        -1.305906
 H         2.776697         0.211528        -2.013255
 H         2.156009         1.733372        -1.332743
 H         4.475156         1.735704        -0.063700
 H         3.125794         1.581261         2.044723
 H         4.873930        -1.674510         1.499612
 H         2.464619        -1.804646        -0.643177
 H         1.922537        -1.817035         1.130157
