19
Iteration:  3303
 C         0.243402        -0.552520        -0.849280
 C         1.550947        -0.087176        -0.241445
 C         2.462970         0.941876        -1.034627
 C         3.582733         1.036524         0.150026
 C         2.679317         0.916943         1.399734
 O         1.372257         0.692833         0.934118
 C         3.517645        -0.277635         0.979772
 O         4.706923        -0.858116         1.527091
 C         2.548342        -1.179928         0.200008
 H        -0.772143        -0.097980        -0.498629
 H         0.158596        -0.379492        -1.867584
 H         0.139957        -1.598494        -0.562515
 H         2.884512         0.578561        -1.981539
 H         2.094594         2.039371        -1.243028
 H         4.472985         1.636800         0.081986
 H         2.629829         1.539501         2.307787
 H         4.409518        -1.714292         1.879436
 H         3.040323        -1.659172        -0.664509
 H         2.191401        -2.031184         0.848659
