19
Iteration:  2507
 C         0.284875        -0.564763        -0.865174
 C         1.591705        -0.070536        -0.246932
 C         2.461091         0.903867        -1.005957
 C         3.557266         1.020521         0.157641
 C         2.689357         0.925500         1.407127
 O         1.346413         0.649007         1.014344
 C         3.482434        -0.282706         1.023781
 O         4.662533        -0.801424         1.401664
 C         2.540024        -1.166675         0.183154
 H         0.057211         0.096034        -1.662970
 H         0.575192        -1.545786        -1.307659
 H        -0.534527        -0.596602        -0.162920
 H         2.771764         0.471769        -2.082243
 H         1.993583         1.843406        -1.184728
 H         4.545142         1.519214         0.083269
 H         2.869299         1.514984         2.312733
 H         4.436335        -1.128952         2.258807
 H         3.194437        -1.570901        -0.602900
 H         2.201013        -2.102029         0.776881
