19
Iteration:   433charge 0 multiplicity 1
 C         0.114710        -0.533162        -0.726442
 C         1.546479        -0.117329        -0.205807
 C         2.491318         0.705222        -1.080869
 C         3.604422         0.954928        -0.077173
 C         2.824810         1.092977         1.186503
 O         1.437867         0.751599         0.977746
 C         3.535328        -0.171639         0.944520
 O         4.664932        -0.927064         1.521838
 C         2.438970        -1.098513         0.449211
 H        -0.378452        -0.858741         0.214485
 H        -0.430376         0.300664        -1.147499
 H         0.062545        -1.377136        -1.530858
 H         2.825358         0.080303        -2.035549
 H         2.029715         1.620376        -1.460501
 H         4.626012         1.470453        -0.331183
 H         3.010263         1.728655         2.067522
 H         4.564687        -1.399197         2.365407
 H         2.983672        -1.730523        -0.262625
 H         1.930602        -1.769532         1.173082
