19
Iteration:  3804charge 0 multiplicity 1
 C         0.272121        -0.386969        -0.991363
 C         1.496047        -0.092312        -0.182017
 C         2.466296         0.861125        -0.961348
 C         3.455195         1.062732         0.164342
 C         2.715053         0.803802         1.482880
 O         1.306816         0.619448         1.005567
 C         3.577750        -0.261546         0.906410
 O         4.746149        -0.795460         1.371795
 C         2.569430        -1.253256         0.234772
 H        -0.305216         0.581605        -0.986243
 H         0.702892        -0.636419        -1.994476
 H        -0.310729        -1.184855        -0.517968
 H         2.915019         0.380378        -1.782510
 H         1.798204         1.810652        -1.246859
 H         4.283019         1.691934         0.236374
 H         2.871160         1.362274         2.467892
 H         4.746498        -0.983075         2.355395
 H         3.099630        -1.814911        -0.568617
 H         2.263965        -1.954981         1.078309
