19
Iteration:  3426
 C         0.294034        -0.543277        -0.832441
 C         1.579311        -0.039170        -0.266846
 C         2.557316         0.919350        -0.970144
 C         3.507632         1.103356         0.185986
 C         2.676110         0.827838         1.409658
 O         1.320501         0.680151         0.959580
 C         3.525084        -0.284772         0.908850
 O         4.670595        -0.921288         1.397156
 C         2.509071        -1.132943         0.250938
 H        -0.110158         0.021794        -1.696952
 H         0.393414        -1.456031        -1.384713
 H        -0.554424        -0.669820        -0.067448
 H         3.089820         0.286628        -1.824318
 H         1.961044         1.778770        -1.293951
 H         4.517548         1.738953         0.081527
 H         2.632471         1.257160         2.408975
 H         5.025254        -0.545374         2.241565
 H         2.918405        -1.752601        -0.574870
 H         2.021255        -1.764986         1.093681
