19
Iteration:   219
 C         0.095765        -0.377958        -0.757804
 C         1.495014        -0.170729        -0.134124
 C         2.503451         0.667571        -1.045439
 C         3.583340         0.888155        -0.023806
 C         2.817173         0.994399         1.245178
 O         1.462462         0.768199         0.919449
 C         3.512128        -0.344596         0.843109
 O         4.726014        -0.639158         1.539678
 C         2.437874        -1.314285         0.402591
 H        -0.515084        -1.039150        -0.184866
 H        -0.409007         0.674442        -0.810037
 H         0.180481        -0.773899        -1.766726
 H         2.884653         0.220713        -1.992483
 H         2.063859         1.709866        -1.255156
 H         4.641018         1.387770        -0.158896
 H         2.967051         1.651612         2.054311
 H         4.516200        -0.851154         2.487739
 H         2.768618        -1.947941        -0.380474
 H         2.092427        -1.962443         1.227218
