19
Iteration:  2624
 C         0.270637        -0.682916        -0.832898
 C         1.588574        -0.042498        -0.308984
 C         2.520431         0.950610        -1.060158
 C         3.552716         1.138979         0.101014
 C         2.728794         0.952763         1.351501
 O         1.413074         0.666941         1.021173
 C         3.525913        -0.270085         0.919753
 O         4.611360        -0.977263         1.532178
 C         2.426978        -1.142863         0.255344
 H        -0.617779        -0.252738        -0.445700
 H         0.340340        -0.411072        -1.953576
 H         0.206158        -1.746550        -0.401237
 H         3.019946         0.534666        -1.865546
 H         1.918347         1.820994        -1.450599
 H         4.327665         1.864350        -0.062251
 H         2.871089         1.613742         2.190854
 H         4.893415        -0.538352         2.396776
 H         2.846788        -1.806425        -0.512716
 H         1.970744        -1.724736         1.069861
