19
Iteration:  2771
 C         0.339183        -0.602868        -0.844877
 C         1.584228        -0.088473        -0.250161
 C         2.533225         0.920043        -0.966948
 C         3.536480         1.068794         0.112779
 C         2.741565         0.948996         1.410633
 O         1.355923         0.720788         0.990358
 C         3.469595        -0.292394         0.839345
 O         4.561011        -0.839798         1.428669
 C         2.541471        -1.269684         0.280165
 H        -0.153826         0.303418        -1.372226
 H         0.639217        -1.323096        -1.569360
 H        -0.259302        -1.023535        -0.083758
 H         3.027621         0.543018        -1.919520
 H         1.977784         1.746677        -1.170631
 H         4.465111         1.715695         0.048946
 H         2.857622         1.487799         2.327017
 H         4.402892        -0.902905         2.339670
 H         2.829846        -1.883802        -0.612053
 H         2.126759        -1.729662         1.258628
