19
Iteration:  2545
 C         0.179190        -0.345102        -0.938302
 C         1.485930        -0.071718        -0.196355
 C         2.565174         0.801781        -1.032533
 C         3.574687         1.027936         0.112306
 C         2.659197         0.753258         1.385380
 O         1.293754         0.532061         1.002490
 C         3.582027        -0.265161         0.772036
 O         4.762671        -0.724222         1.563692
 C         2.572981        -1.209320         0.290847
 H        -0.192946         0.660702        -1.384931
 H         0.192220        -1.059188        -1.756569
 H        -0.628648        -0.813509        -0.277290
 H         2.762060         0.288254        -1.885247
 H         1.983139         1.766294        -1.234539
 H         4.349778         1.866335         0.275347
 H         2.720595         1.223544         2.370284
 H         5.035985        -0.217654         2.397121
 H         2.775272        -1.970969        -0.461886
 H         2.210183        -1.735546         1.103521
