19
Iteration:  3347
 C         0.203147        -0.426998        -0.835559
 C         1.582168        -0.068307        -0.202382
 C         2.545724         0.873283        -0.984559
 C         3.530622         1.106542         0.076220
 C         2.719652         0.786000         1.434556
 O         1.399074         0.600518         0.942601
 C         3.570828        -0.293981         0.786881
 O         4.568481        -0.686355         1.634289
 C         2.560356        -1.268405         0.193498
 H        -0.605822         0.393396        -0.595663
 H         0.337922        -0.323052        -1.836992
 H        -0.196608        -1.415065        -0.513269
 H         2.993366         0.413441        -1.890581
 H         1.828288         1.706822        -1.342693
 H         4.308015         1.713204         0.083328
 H         2.935601         1.057280         2.469220
 H         4.814812        -1.598991         1.505460
 H         2.968118        -1.794745        -0.650438
 H         2.122690        -2.027904         0.850463
