19
Iteration:  1851
 C         0.244474        -0.468095        -0.754338
 C         1.543057        -0.133321        -0.206910
 C         2.460838         0.871825        -0.962272
 C         3.545420         0.963461         0.113141
 C         2.707705         0.916689         1.351430
 O         1.330043         0.738967         0.953162
 C         3.539923        -0.349096         0.861961
 O         4.808403        -0.763647         1.389965
 C         2.494648        -1.218551         0.313951
 H        -0.395781        -0.875274         0.043693
 H        -0.261451         0.376581        -1.213862
 H         0.336122        -1.292357        -1.581757
 H         2.804609         0.400800        -1.888031
 H         1.989813         1.857070        -1.172218
 H         4.400301         1.683197        -0.098447
 H         2.794976         1.681940         2.102438
 H         4.551170        -1.465528         2.009982
 H         2.714584        -1.946335        -0.473534
 H         1.961845        -1.774311         1.102311
