19
Iteration:  3396
 C         0.247777        -0.435161        -0.923624
 C         1.507661        -0.108078        -0.226516
 C         2.543286         0.865793        -0.973641
 C         3.502437         0.999995         0.147386
 C         2.697060         0.843911         1.367714
 O         1.342571         0.659675         1.054040
 C         3.525044        -0.362492         0.949828
 O         4.660768        -0.796201         1.489826
 C         2.527235        -1.172263         0.223132
 H         0.022834         0.420004        -1.522621
 H         0.578430        -1.157904        -1.826289
 H        -0.502102        -0.753449        -0.206615
 H         2.944011         0.349531        -1.906556
 H         2.064193         1.765043        -1.295431
 H         4.411981         1.741762         0.213029
 H         2.887728         1.373409         2.276006
 H         5.380860        -0.105132         1.466177
 H         2.963865        -1.777946        -0.645906
 H         2.116989        -2.015573         0.911765
