19
Iteration:  4871charge 0 multiplicity 1
 C         0.165535        -0.402835        -0.751903
 C         1.549241        -0.122636        -0.249416
 C         2.478037         0.802687        -1.001188
 C         3.522436         1.091884         0.030885
 C         2.809059         0.843522         1.405110
 O         1.439271         0.625705         0.985976
 C         3.598603        -0.303083         0.805726
 O         4.670847        -0.786397         1.677606
 C         2.504313        -1.202945         0.063155
 H        -0.387694        -1.204199        -0.188303
 H        -0.478140         0.507108        -0.620618
 H         0.173091        -0.600484        -1.821655
 H         2.905000         0.510922        -1.901737
 H         1.882187         1.707565        -1.393758
 H         4.415839         1.583853        -0.155195
 H         2.869947         1.348125         2.411398
 H         4.110742        -0.799187         2.492746
 H         2.816686        -1.756628        -0.836940
 H         1.951914        -1.966127         0.698268
