19
Iteration:   706charge 0 multiplicity 1
 C         0.209089        -0.495873        -0.762360
 C         1.517670        -0.108526        -0.157376
 C         2.499686         0.602976        -1.096860
 C         3.612598         0.958364        -0.058628
 C         2.837181         1.017203         1.333652
 O         1.412058         0.821835         1.044759
 C         3.519499        -0.191960         0.876497
 O         4.677323        -0.792287         1.494535
 C         2.401122        -1.228766         0.330680
 H        -0.056666        -1.472117        -0.390969
 H        -0.561588         0.270953        -0.330563
 H         0.146467        -0.547346        -1.851304
 H         2.874097        -0.096141        -1.892091
 H         2.160582         1.420712        -1.668678
 H         4.555535         1.635422        -0.197970
 H         3.079473         1.818227         2.036036
 H         4.257277        -1.225722         2.307229
 H         2.741503        -1.923668        -0.396873
 H         1.754038        -1.743873         1.097142
