19
Iteration:  1060
 C         0.073677        -0.430441        -0.665902
 C         1.534243        -0.095636        -0.199122
 C         2.517810         0.745194        -1.112431
 C         3.601002         0.965976        -0.044832
 C         2.760051         0.913578         1.249801
 O         1.426500         0.679181         0.964040
 C         3.583114        -0.324628         0.828655
 O         4.686245        -0.687677         1.647118
 C         2.426913        -1.180320         0.330625
 H        -0.448937        -0.938748         0.126264
 H        -0.410655         0.493331        -0.808318
 H         0.149403        -1.004245        -1.672377
 H         3.087804         0.192368        -1.998266
 H         2.022491         1.644535        -1.494050
 H         4.415682         1.566044        -0.200235
 H         2.952157         1.503758         2.160250
 H         5.113585        -1.511777         1.235785
 H         2.905446        -2.120069        -0.106670
 H         1.984910        -1.565127         1.267941
