19
Iteration:  4010
 C         0.243191        -0.478092        -0.848647
 C         1.471403        -0.085616        -0.211455
 C         2.487931         1.003906        -1.021217
 C         3.515504         1.024864         0.135550
 C         2.716756         0.868461         1.408516
 O         1.343577         0.553100         1.073448
 C         3.593972        -0.322403         0.864459
 O         4.697139        -0.751753         1.563975
 C         2.600862        -1.220200         0.057235
 H        -0.564127         0.115222        -0.353216
 H         0.098306        -0.152368        -1.892694
 H        -0.033002        -1.529273        -0.686847
 H         2.968076         0.665287        -2.056206
 H         2.042859         1.940011        -1.259790
 H         4.503287         1.665917         0.314657
 H         2.914784         1.380019         2.342759
 H         4.284349        -1.520270         2.103579
 H         3.015829        -1.595011        -0.892000
 H         2.102313        -2.040848         0.501228
