19
Iteration:  2284charge 0 multiplicity 1
 C         0.169771        -0.363073        -0.817029
 C         1.482624        -0.175976        -0.182590
 C         2.524525         0.785580        -0.947565
 C         3.511257         0.993353         0.133549
 C         2.651578         0.916094         1.325920
 O         1.326663         0.667464         0.930019
 C         3.548376        -0.369888         0.860983
 O         4.787514        -0.732242         1.522108
 C         2.596929        -1.263715         0.191754
 H         0.112001         0.401517        -1.620393
 H         0.195343        -1.355426        -1.182977
 H        -0.648287        -0.222580        -0.076466
 H         3.037089         0.222017        -1.752657
 H         1.900603         1.780325        -1.181648
 H         4.388650         1.737689         0.138812
 H         2.893024         1.467937         2.231360
 H         4.910490        -0.302069         2.354984
 H         2.986810        -1.609609        -0.801865
 H         2.113458        -2.116164         0.801775
