19
Iteration:  3943charge 0 multiplicity 1
 C         0.259668        -0.457720        -0.930400
 C         1.536608        -0.051913        -0.233669
 C         2.541608         0.856896        -0.962856
 C         3.524831         1.010325         0.235738
 C         2.668844         0.813382         1.496808
 O         1.274736         0.626733         1.052982
 C         3.515902        -0.311363         0.922662
 O         4.817165        -0.716161         1.320298
 C         2.484114        -1.222075         0.194318
 H        -0.543696         0.355699        -0.860696
 H         0.394956        -0.450286        -2.046834
 H        -0.241639        -1.342925        -0.645042
 H         3.031485         0.287895        -1.871072
 H         2.051960         1.757624        -1.226611
 H         4.365887         1.741286         0.265466
 H         2.777421         1.331532         2.444986
 H         4.827213        -1.160490         2.143322
 H         2.973903        -1.527013        -0.718866
 H         2.051003        -1.970631         0.800111
