19
Iteration:  4110
 C         0.417787        -0.579740        -1.031850
 C         1.526544        -0.046263        -0.183287
 C         2.443466         0.973629        -0.844310
 C         3.451318         1.128234         0.250085
 C         2.713956         0.854017         1.496902
 O         1.308137         0.648347         1.106701
 C         3.520578        -0.356485         0.868162
 O         4.771670        -0.820744         1.291254
 C         2.486260        -1.156306         0.124570
 H         0.046977         0.053195        -1.793036
 H         0.656408        -1.521788        -1.443785
 H        -0.513326        -0.682827        -0.406721
 H         2.764104         0.424049        -1.718876
 H         1.923376         1.918799        -1.127625
 H         4.164744         1.831812         0.360352
 H         3.071818         1.127004         2.496282
 H         4.612985        -1.515040         1.948276
 H         2.804885        -1.670176        -0.763473
 H         2.010866        -1.764920         0.846065
