19
Iteration:  2297charge 0 multiplicity 1
 C         0.126930        -0.407166        -0.819324
 C         1.572459        -0.094597        -0.252067
 C         2.475316         0.799351        -1.028440
 C         3.546519         1.001109         0.091523
 C         2.712048         0.820103         1.380720
 O         1.356209         0.674304         1.001318
 C         3.599318        -0.280472         0.902443
 O         4.710300        -0.764350         1.606529
 C         2.570774        -1.286590         0.149536
 H        -0.194030         0.374128        -1.514326
 H         0.060000        -1.334657        -1.467378
 H        -0.748318        -0.479457        -0.020722
 H         2.796595         0.409727        -2.074847
 H         1.981145         1.774967        -1.280743
 H         4.357754         1.651746        -0.072869
 H         2.735344         1.378332         2.342174
 H         5.038433         0.108496         2.022988
 H         3.068994        -1.812342        -0.676933
 H         2.140201        -2.016118         0.857543
