19
Iteration:  2686
 C         0.204414        -0.304136        -0.879783
 C         1.560559        -0.078574        -0.330756
 C         2.511592         0.787854        -1.088072
 C         3.502775         1.025417         0.070271
 C         2.707835         0.794275         1.387127
 O         1.372322         0.530141         1.078066
 C         3.544366        -0.324968         0.889057
 O         4.755827        -0.618493         1.582655
 C         2.492455        -1.252348         0.241530
 H        -0.253032         0.655472        -1.237997
 H         0.216868        -0.940685        -1.750219
 H        -0.532318        -0.877754        -0.222596
 H         3.044927         0.145452        -1.831226
 H         2.013761         1.709380        -1.605550
 H         4.473149         1.651197         0.186735
 H         2.808604         1.317760         2.320627
 H         4.483070        -0.893380         2.529158
 H         2.842288        -1.976992        -0.541664
 H         2.106104        -1.903849         1.037192
