19
Iteration:  4454
 C         0.185265        -0.373207        -0.740546
 C         1.548096        -0.110716        -0.336731
 C         2.512717         0.870526        -1.077838
 C         3.644519         0.888893         0.068277
 C         2.676389         0.863491         1.362567
 O         1.373476         0.632398         0.991206
 C         3.529718        -0.292514         0.865177
 O         4.671108        -0.621919         1.668562
 C         2.557517        -1.317894         0.159660
 H        -0.218482        -0.020637        -1.702147
 H        -0.080733        -1.481841        -0.688290
 H        -0.556603         0.211885        -0.126469
 H         3.015564         0.314412        -1.944218
 H         2.050194         1.980155        -1.210872
 H         4.498595         1.630445        -0.113566
 H         2.958312         1.417304         2.252605
 H         4.576414        -1.435153         2.249357
 H         2.797349        -1.882307        -0.781536
 H         1.937496        -1.999125         0.831370
