19
Iteration:  3538charge 0 multiplicity 1
 C         0.270617        -0.428206        -0.923376
 C         1.592621        -0.134441        -0.223319
 C         2.526682         0.840689        -0.980561
 C         3.478098         1.078526         0.157072
 C         2.693437         0.935805         1.401145
 O         1.236453         0.705838         0.997011
 C         3.540565        -0.345199         0.910046
 O         4.750131        -0.831113         1.386048
 C         2.518276        -1.256837         0.288948
 H        -0.332760         0.303464        -0.501175
 H         0.397411        -0.145985        -2.005937
 H        -0.031544        -1.382857        -0.688208
 H         3.056140         0.261990        -1.834227
 H         2.053206         1.740789        -1.377703
 H         4.330321         1.606253         0.160829
 H         2.901520         1.264369         2.442411
 H         4.693156        -0.807981         2.389296
 H         3.032771        -1.931986        -0.464527
 H         2.202812        -1.945567         1.112746
