19
Iteration:  3530charge 0 multiplicity 1
 C         0.248275        -0.359230        -0.892720
 C         1.593169        -0.175833        -0.266516
 C         2.572459         0.824505        -0.992084
 C         3.466960         1.037878         0.160795
 C         2.672701         0.858437         1.380727
 O         1.262798         0.684315         1.011803
 C         3.513757        -0.286659         0.940706
 O         4.765375        -0.796591         1.393906
 C         2.548733        -1.257276         0.307499
 H        -0.507100         0.382615        -0.438663
 H         0.251401        -0.356495        -2.024224
 H        -0.127903        -1.395399        -0.797118
 H         2.991467         0.456272        -1.863302
 H         2.082255         1.796481        -1.357224
 H         4.451694         1.632185         0.128096
 H         2.826595         1.596371         2.262247
 H         4.708442        -0.949982         2.413498
 H         3.059866        -1.861975        -0.521904
 H         1.956691        -1.965835         0.971856
