19
Iteration:  1455charge 0 multiplicity 1
 C         0.184559        -0.466755        -0.665142
 C         1.604607        -0.158679        -0.168676
 C         2.425503         0.820538        -1.081868
 C         3.545594         0.998756        -0.053953
 C         2.802460         0.940960         1.284169
 O         1.450954         0.742442         0.944565
 C         3.504269        -0.243264         0.921049
 O         4.631259        -0.869164         1.497223
 C         2.528778        -1.196709         0.299190
 H        -0.461416        -0.331884         0.243171
 H        -0.294891         0.153035        -1.503294
 H         0.134752        -1.478320        -0.881331
 H         2.790018         0.261841        -2.034008
 H         1.763951         1.626799        -1.361157
 H         4.511295         1.527616        -0.027816
 H         2.936931         1.551818         2.146531
 H         4.789887        -0.623637         2.398308
 H         2.945990        -1.832896        -0.471777
 H         1.960805        -1.922657         0.926899
