19
Iteration:   435
 C         0.110976        -0.552121        -0.724874
 C         1.559695        -0.120735        -0.224463
 C         2.488169         0.705440        -1.090820
 C         3.606134         0.939881        -0.078921
 C         2.819964         1.106448         1.196055
 O         1.441358         0.761312         0.990096
 C         3.527783        -0.159955         0.956163
 O         4.659171        -0.945298         1.520694
 C         2.458461        -1.082813         0.434866
 H        -0.324671        -0.929929         0.188521
 H        -0.518617         0.361891        -1.117831
 H         0.118856        -1.340818        -1.488385
 H         2.795713         0.110079        -2.065315
 H         2.030199         1.587158        -1.448295
 H         4.544646         1.429491        -0.298150
 H         3.019746         1.785941         2.070217
 H         4.558349        -1.384721         2.340999
 H         2.982511        -1.736629        -0.261044
 H         1.872844        -1.725504         1.215086
