19
Iteration:  3080
 C         0.162186        -0.329762        -0.855220
 C         1.557917        -0.187803        -0.244561
 C         2.520823         0.802974        -0.983989
 C         3.588370         0.970304         0.111211
 C         2.668364         0.904469         1.354854
 O         1.350224         0.612705         0.943485
 C         3.561023        -0.272664         0.963477
 O         4.692671        -0.665721         1.568596
 C         2.589114        -1.301254         0.159181
 H        -0.406978         0.435189        -0.413906
 H         0.006183        -0.258013        -1.944349
 H        -0.359013        -1.296248        -0.600869
 H         2.924089         0.500389        -1.955563
 H         1.888868         1.767871        -1.141749
 H         4.429462         1.615097         0.095331
 H         2.968643         1.484216         2.266393
 H         4.422552        -1.366442         2.207570
 H         3.111823        -1.837025        -0.653233
 H         2.095867        -1.989423         0.815422
