19
Iteration:  4418
 C         0.242036        -0.429471        -0.958526
 C         1.522545        -0.122264        -0.206182
 C         2.441636         0.825240        -1.012868
 C         3.551106         1.002538         0.026158
 C         2.775017         0.937954         1.389336
 O         1.334805         0.676775         1.082167
 C         3.625154        -0.231142         0.873302
 O         4.678900        -0.839124         1.551980
 C         2.487043        -1.258159         0.231931
 H         0.407171        -0.339153        -2.039527
 H        -0.046559        -1.439101        -0.682171
 H        -0.468375         0.198281        -0.532383
 H         2.799621         0.273540        -1.819347
 H         2.009230         1.769458        -1.536439
 H         4.264468         1.737331        -0.132695
 H         2.999252         1.479573         2.329832
 H         4.440762        -0.743219         2.538597
 H         2.927435        -1.918604        -0.558204
 H         2.250682        -1.876579         1.097828
