19
Iteration:  3587charge 0 multiplicity 1
 C         0.246284        -0.532980        -0.862569
 C         1.600481        -0.086712        -0.236053
 C         2.433484         0.999837        -1.007329
 C         3.561032         1.009346         0.070599
 C         2.691361         0.918723         1.380628
 O         1.392146         0.643130         1.037027
 C         3.562278        -0.310388         0.912752
 O         4.663383        -0.858070         1.534970
 C         2.517338        -1.209074         0.145807
 H        -0.465574         0.332192        -1.099610
 H         0.556025        -1.010380        -1.753690
 H        -0.164246        -1.268355        -0.098324
 H         2.662537         0.618327        -1.945875
 H         2.045324         2.050855        -1.050836
 H         4.589087         1.562732         0.015364
 H         2.672263         1.403953         2.311645
 H         4.454599        -0.817866         2.451134
 H         2.923244        -1.731372        -0.718229
 H         2.031153        -1.927057         0.817321
