19
Iteration:  3060
 C         0.234273        -0.463352        -0.816620
 C         1.564860         0.017726        -0.294135
 C         2.596378         0.913998        -1.101802
 C         3.520942         1.015333         0.077810
 C         2.679723         0.835755         1.363684
 O         1.316924         0.589028         1.021498
 C         3.567555        -0.284279         0.881380
 O         4.725478        -0.788866         1.596512
 C         2.490957        -1.159054         0.240481
 H        -0.588632         0.120413        -0.573928
 H         0.231901        -0.841095        -1.891762
 H        -0.011103        -1.425016        -0.414675
 H         2.871591         0.369664        -1.887075
 H         2.051003         1.802225        -1.541408
 H         4.319569         1.625695         0.061780
 H         2.840707         1.419461         2.316224
 H         4.392247        -1.449096         2.319064
 H         2.921245        -1.867179        -0.582045
 H         1.978650        -1.822929         1.024347
