19
Iteration:   895charge 0 multiplicity 1
 C         0.196932        -0.498905        -0.627474
 C         1.557096        -0.107308        -0.211796
 C         2.484400         0.805413        -1.111282
 C         3.614656         0.954980        -0.111955
 C         2.745758         0.999112         1.245680
 O         1.457048         0.749853         0.960025
 C         3.560696        -0.255823         0.837405
 O         4.596471        -0.824439         1.589425
 C         2.491309        -1.170810         0.437469
 H        -0.097842        -1.496169        -0.107395
 H        -0.593180         0.191521        -0.386952
 H         0.115952        -0.719024        -1.743134
 H         2.783093         0.285244        -2.147326
 H         1.928174         1.621815        -1.439041
 H         4.554373         1.555260        -0.341896
 H         3.155926         1.728944         1.943430
 H         4.255494        -1.688249         1.850651
 H         2.753979        -2.040328        -0.273350
 H         2.020516        -1.713974         1.285793
