19
Iteration:  4851
 C         0.195733        -0.334071        -0.903473
 C         1.499970        -0.070660        -0.166354
 C         2.452898         0.924729        -1.004758
 C         3.574190         0.925830         0.006210
 C         2.776481         0.797377         1.246044
 O         1.371782         0.606314         1.138292
 C         3.536794        -0.382997         0.883010
 O         4.677146        -0.678945         1.570228
 C         2.603244        -1.292724         0.180894
 H        -0.520744        -0.876423        -0.265025
 H        -0.325395         0.610687        -1.178061
 H         0.345696        -1.001946        -1.709093
 H         2.677762         0.522075        -2.064370
 H         2.048891         1.972758        -1.132820
 H         4.396425         1.611230         0.117069
 H         3.025906         1.348707         2.212938
 H         4.350687        -0.747196         2.530256
 H         2.963941        -1.851094        -0.713178
 H         2.123681        -1.998011         0.897634
