19
Iteration:  1308
 C         0.141546        -0.531856        -0.687841
 C         1.549735        -0.100528        -0.230425
 C         2.418754         0.839167        -1.101889
 C         3.628352         0.878140        -0.120629
 C         2.767737         0.975246         1.281803
 O         1.375278         0.796335         0.951858
 C         3.577086        -0.233102         0.921116
 O         4.695881        -0.976835         1.583806
 C         2.511017        -1.161237         0.378650
 H        -0.019822        -1.489155        -0.159005
 H        -0.502548         0.168515        -0.315504
 H        -0.043745        -0.711261        -1.793708
 H         2.619736         0.460520        -2.145233
 H         1.993676         1.910838        -1.059689
 H         4.464434         1.647374        -0.289018
 H         3.013859         1.649555         2.060113
 H         5.049357        -0.083453         1.947383
 H         2.919353        -1.948374        -0.270606
 H         1.776867        -1.473432         1.090589
