19
Iteration:  2835charge 0 multiplicity 1
 C         0.286980        -0.282352        -0.822261
 C         1.620460        -0.195270        -0.247151
 C         2.490998         0.750084        -1.083081
 C         3.543188         1.031158         0.120266
 C         2.707541         0.804418         1.455812
 O         1.433660         0.613269         0.945746
 C         3.478248        -0.313235         0.868353
 O         4.609476        -0.560057         1.565489
 C         2.500319        -1.315552         0.196541
 H        -0.521841         0.384447        -0.270915
 H         0.175653        -0.051200        -1.928120
 H        -0.253778        -1.164136        -0.577540
 H         3.112278         0.133781        -1.890438
 H         2.042060         1.591795        -1.526040
 H         4.434704         1.584389        -0.214149
 H         2.844289         1.223802         2.437981
 H         4.494955        -1.168887         2.289350
 H         2.917069        -2.007869        -0.494439
 H         2.071327        -1.881511         1.059077
