19
Iteration:  1196
 C         0.201363        -0.438920        -0.696314
 C         1.522740        -0.044196        -0.165142
 C         2.464544         0.762691        -1.058616
 C         3.567216         0.960504        -0.068996
 C         2.817589         0.923367         1.242890
 O         1.449384         0.703450         1.044624
 C         3.516581        -0.336521         0.789066
 O         4.622468        -0.683049         1.670136
 C         2.462150        -1.283823         0.264121
 H        -0.572664        -0.570910         0.118008
 H        -0.270134         0.209052        -1.483529
 H         0.162136        -1.426255        -0.960947
 H         2.800515         0.254858        -1.889919
 H         2.151701         1.887925        -1.368244
 H         4.535811         1.498581        -0.252729
 H         2.999244         1.543471         2.136437
 H         5.194140        -1.212368         1.126275
 H         2.911458        -1.856972        -0.527538
 H         1.848955        -1.922805         0.918735
