19
Iteration:  1050charge 0 multiplicity 1
 C         0.109274        -0.463450        -0.624699
 C         1.501367        -0.107166        -0.254315
 C         2.555728         0.751427        -1.069424
 C         3.581704         0.968645        -0.023169
 C         2.802339         0.929013         1.231075
 O         1.355561         0.778423         0.980445
 C         3.597432        -0.305092         0.794840
 O         4.724667        -0.713208         1.667778
 C         2.463858        -1.262452         0.296690
 H        -0.347314        -0.964023         0.197423
 H        -0.447109         0.377377        -0.984188
 H         0.084418        -1.336726        -1.422959
 H         2.989801         0.244428        -2.030708
 H         2.124383         1.754050        -1.361789
 H         4.311534         1.654568        -0.065344
 H         2.955170         1.662400         2.045303
 H         4.935668        -1.652386         1.404099
 H         2.457912        -2.065596        -0.563298
 H         1.854520        -1.597461         1.130001
