19
Iteration:  4962
 C         0.211579        -0.303466        -0.993424
 C         1.539338        -0.122775        -0.174865
 C         2.471378         0.730203        -0.952250
 C         3.556716         0.891572         0.034166
 C         2.782611         0.982598         1.313750
 O         1.340220         0.612276         1.091615
 C         3.549106        -0.280010         0.872503
 O         4.740981        -0.682596         1.441209
 C         2.456447        -1.269480         0.381023
 H        -0.133014        -1.306488        -0.875611
 H        -0.554543         0.278948        -0.483273
 H         0.278935        -0.024389        -2.074053
 H         2.797709         0.138963        -1.894586
 H         2.073211         1.605842        -1.373236
 H         4.555264         1.443159        -0.036751
 H         2.994733         1.437518         2.229731
 H         4.555528        -0.926832         2.342980
 H         3.010500        -1.991226        -0.291604
 H         1.855802        -1.830179         1.088770
