19
Iteration:   513charge 0 multiplicity 1
 C         0.145643        -0.210621        -0.720139
 C         1.523337        -0.140735        -0.177862
 C         2.458405         0.567828        -1.131525
 C         3.607939         0.826494        -0.083667
 C         2.734299         1.012750         1.174467
 O         1.371135         0.667378         0.956722
 C         3.556660        -0.293887         0.971785
 O         4.766708        -0.654542         1.558329
 C         2.474381        -1.294724         0.418242
 H        -0.411064        -1.090921        -0.404438
 H        -0.399931         0.761559        -0.299411
 H         0.259860        -0.288502        -1.746628
 H         2.762226         0.026628        -2.097867
 H         2.052158         1.559015        -1.401993
 H         4.494649         1.366697        -0.308584
 H         2.847652         1.660151         2.008559
 H         4.765820        -0.851877         2.522882
 H         3.005834        -1.911735        -0.300977
 H         1.950363        -1.800771         1.295653
