19
Iteration:  3290
 C         0.270380        -0.555414        -0.869748
 C         1.599370        -0.101591        -0.264191
 C         2.525015         0.887266        -0.947076
 C         3.533320         1.051579         0.159018
 C         2.673172         0.896646         1.410581
 O         1.307966         0.740499         0.976260
 C         3.539106        -0.262992         0.844882
 O         4.665166        -0.839598         1.465097
 C         2.580230        -1.201849         0.235976
 H        -0.420395         0.163011        -0.391202
 H         0.307227        -0.452071        -2.015036
 H         0.018983        -1.576465        -0.726967
 H         2.887120         0.482111        -1.857659
 H         1.772803         1.794028        -1.111233
 H         4.590768         1.606751         0.113787
 H         2.874456         1.297159         2.423742
 H         4.325770        -1.479917         2.168066
 H         2.948709        -1.869748        -0.542023
 H         2.015948        -1.695628         0.967726
