19
Iteration:  1898charge 0 multiplicity 1
 C         0.248824        -0.331987        -0.698516
 C         1.543172        -0.111542        -0.154049
 C         2.448905         0.722754        -1.026719
 C         3.504160         1.028182         0.045258
 C         2.736471         0.843213         1.317367
 O         1.357048         0.613611         1.066844
 C         3.552848        -0.263705         0.777314
 O         4.661169        -0.791911         1.616157
 C         2.590088        -1.219484         0.096374
 H        -0.518275        -0.056186         0.073038
 H         0.068173         0.405599        -1.594629
 H         0.170314        -1.418372        -1.143207
 H         2.781994         0.285876        -1.915677
 H         1.781156         1.715121        -1.206659
 H         4.297320         1.672899        -0.147008
 H         2.938969         1.334506         2.283248
 H         5.264928        -0.080568         1.692343
 H         2.825406        -1.661291        -0.924976
 H         2.141196        -2.120474         0.608169
