19
Iteration:  2573charge 0 multiplicity 1
 C         0.248851        -0.398954        -0.855652
 C         1.601746        -0.137709        -0.305957
 C         2.477942         0.816634        -1.018676
 C         3.473866         1.015325         0.125569
 C         2.730152         0.922224         1.368756
 O         1.382200         0.600758         1.013142
 C         3.446307        -0.326481         0.936850
 O         4.698403        -0.742016         1.575048
 C         2.555798        -1.277497         0.164658
 H        -0.268641         0.546047        -0.611331
 H         0.213551        -0.465787        -1.944660
 H        -0.301864        -1.142477        -0.396587
 H         2.886429         0.403119        -2.087931
 H         1.913634         1.682524        -1.174985
 H         4.344245         1.539155         0.127334
 H         2.853375         1.582775         2.224670
 H         5.057481        -0.041019         2.243793
 H         3.140748        -1.804175        -0.610635
 H         1.992076        -2.168914         0.762624
