19
Iteration:  4208
 C         0.263763        -0.446410        -0.968951
 C         1.557323        -0.077523        -0.197310
 C         2.404940         1.009011        -0.975612
 C         3.554435         1.047138         0.103254
 C         2.725984         0.870400         1.468631
 O         1.340410         0.457561         1.095122
 C         3.558473        -0.294086         0.882226
 O         4.740579        -0.799864         1.484721
 C         2.507794        -1.202049         0.104022
 H        -0.547654        -0.012812        -0.495013
 H         0.299498        -0.133147        -1.946416
 H        -0.069556        -1.489450        -1.099344
 H         2.784257         0.896471        -2.035385
 H         1.822722         1.984416        -0.928201
 H         4.436834         1.773786         0.061635
 H         2.817961         1.136248         2.518454
 H         4.792373        -0.612324         2.419301
 H         2.891484        -1.823494        -0.667228
 H         2.143589        -1.887850         0.828526
