19
Iteration:  4215charge 0 multiplicity 1
 C         0.288585        -0.485153        -0.973438
 C         1.539372        -0.100916        -0.277847
 C         2.398222         1.064116        -0.985123
 C         3.553656         1.054054         0.123051
 C         2.742210         0.839746         1.458121
 O         1.349078         0.501803         1.108619
 C         3.534585        -0.300183         0.927633
 O         4.745313        -0.817445         1.432234
 C         2.522582        -1.163886         0.208838
 H        -0.590859        -0.043982        -0.393626
 H         0.226325        -0.060063        -2.055851
 H         0.168044        -1.564920        -1.078331
 H         2.687459         0.798745        -2.066359
 H         1.866225         1.951554        -1.079482
 H         4.292596         1.734051         0.134322
 H         2.690315         1.062478         2.521656
 H         4.903817        -0.779688         2.418786
 H         2.947954        -1.753581        -0.657435
 H         1.889456        -1.951411         0.757287
