19
Iteration:   691
 C         0.061650        -0.411141        -0.798031
 C         1.522316        -0.087997        -0.233624
 C         2.560857         0.658724        -1.116148
 C         3.549513         0.878075        -0.049333
 C         2.809645         0.970824         1.252331
 O         1.469465         0.727889         1.032911
 C         3.512872        -0.338731         0.938753
 O         4.716740        -0.670343         1.487636
 C         2.416606        -1.186299         0.471259
 H        -0.237382        -1.426214        -0.502244
 H        -0.592535         0.332728        -0.544420
 H         0.206395        -0.362476        -1.923213
 H         2.886631         0.022944        -1.885706
 H         2.065847         1.639781        -1.562853
 H         4.411864         1.379279        -0.245997
 H         3.062556         1.462793         2.186002
 H         4.727611        -0.855107         2.443184
 H         2.847507        -1.953223        -0.248466
 H         1.982218        -1.714774         1.297989
