19
Iteration:   473
 C         0.198989        -0.585097        -0.649294
 C         1.494355        -0.037773        -0.135740
 C         2.531555         0.662247        -1.036702
 C         3.639025         0.974939        -0.053445
 C         2.849582         0.992092         1.233925
 O         1.441806         0.914571         0.880444
 C         3.504861        -0.349694         0.884123
 O         4.662221        -0.781560         1.515825
 C         2.378832        -1.154512         0.356662
 H         0.069530        -1.596426        -0.157342
 H        -0.708067        -0.088232        -0.505937
 H         0.232015        -0.775758        -1.779027
 H         2.856141         0.025977        -1.755383
 H         1.932612         1.555567        -1.434933
 H         4.722566         1.410740        -0.277918
 H         3.029887         1.228880         2.251075
 H         4.267370        -1.063236         2.372808
 H         2.416613        -1.918589        -0.481935
 H         1.895370        -1.674474         1.154988
