19
Iteration:  1715
 C         0.230108        -0.504638        -0.786146
 C         1.560854        -0.162702        -0.158596
 C         2.478747         0.851057        -0.987467
 C         3.524169         1.068746        -0.014153
 C         2.817102         0.965302         1.309291
 O         1.417453         0.724735         0.982974
 C         3.511776        -0.304234         0.870617
 O         4.675661        -0.782346         1.453913
 C         2.468525        -1.226017         0.372915
 H        -0.495607        -0.766122         0.019139
 H        -0.174466         0.424983        -1.315953
 H         0.335392        -1.323792        -1.467641
 H         2.802432         0.350824        -1.974855
 H         1.831739         1.684862        -1.203190
 H         4.446748         1.553122        -0.238182
 H         3.075118         1.453891         2.246972
 H         4.375789        -1.701259         1.783781
 H         2.883739        -1.988542        -0.308223
 H         1.876908        -1.765899         1.117202
