19
Iteration:  3541
 C         0.302141        -0.457540        -0.939810
 C         1.570150        -0.101077        -0.205690
 C         2.519449         0.830212        -0.989284
 C         3.490618         1.068642         0.157823
 C         2.679161         0.945270         1.419583
 O         1.264199         0.702538         0.991852
 C         3.539284        -0.338476         0.886651
 O         4.741557        -0.841586         1.389751
 C         2.516526        -1.253306         0.285430
 H        -0.444426         0.324159        -0.508920
 H         0.417003        -0.128309        -1.990425
 H        -0.096637        -1.449409        -0.650412
 H         3.019120         0.266131        -1.687372
 H         1.936595         1.745704        -1.376245
 H         4.458176         1.752049         0.129700
 H         2.889358         1.225029         2.511463
 H         4.721163        -0.786623         2.399458
 H         2.964751        -1.914777        -0.540388
 H         2.168938        -1.893224         1.151525
