19
Iteration:  1461
 C         0.202964        -0.455487        -0.646371
 C         1.580822        -0.133223        -0.183379
 C         2.413840         0.826996        -1.056087
 C         3.559015         0.941700        -0.084262
 C         2.767834         0.917456         1.262483
 O         1.418663         0.772772         0.911007
 C         3.547376        -0.309239         0.932658
 O         4.657490        -0.842855         1.521877
 C         2.524947        -1.202147         0.312953
 H        -0.423182        -0.197411         0.199482
 H        -0.227896         0.217962        -1.328456
 H        -0.065194        -1.525429        -1.111608
 H         2.633917         0.458452        -2.050018
 H         1.729900         1.712243        -1.195733
 H         4.476512         1.478046        -0.100747
 H         2.871335         1.472202         2.229915
 H         4.803330        -0.517561         2.410942
 H         3.127866        -1.732615        -0.484226
 H         2.234660        -2.036892         0.968886
