19
Iteration:  4091charge 0 multiplicity 1
 C         0.335432        -0.513305        -1.041911
 C         1.489089        -0.032758        -0.213649
 C         2.504598         1.022675        -0.938163
 C         3.525571         1.045300         0.164281
 C         2.645075         0.809241         1.511844
 O         1.296885         0.542801         1.208085
 C         3.526493        -0.254878         0.858498
 O         4.757891        -0.842099         1.294053
 C         2.556421        -1.168853         0.245216
 H         0.020543         0.311795        -1.750497
 H         0.726660        -1.446982        -1.547977
 H        -0.700987        -0.803279        -0.548561
 H         2.898879         0.731713        -1.857066
 H         1.872461         1.976636        -1.145044
 H         4.435499         1.663646         0.093998
 H         2.738677         1.481686         2.318710
 H         4.598105        -1.145138         2.238555
 H         2.923533        -1.547248        -0.751732
 H         2.155476        -2.084841         0.815343
