19
Iteration:  1140charge 0 multiplicity 1
 C         0.269069        -0.539092        -0.648285
 C         1.596966        -0.141515        -0.190836
 C         2.521737         0.765175        -1.090434
 C         3.598906         0.981007        -0.017284
 C         2.783266         1.050923         1.247814
 O         1.421852         0.734360         0.966390
 C         3.477121        -0.332728         0.848970
 O         4.595795        -0.850540         1.507966
 C         2.367121        -1.194029         0.415788
 H        -0.204545        -1.216293         0.055356
 H        -0.389777         0.403421        -0.575744
 H         0.113947        -0.806063        -1.666484
 H         3.062146         0.348305        -1.908812
 H         2.010755         1.806416        -1.487257
 H         4.551879         1.665066        -0.091778
 H         2.927071         1.597569         2.145962
 H         5.379333        -0.340100         1.124167
 H         2.700025        -1.937774        -0.301785
 H         1.731933        -1.503714         1.255985
