19
Iteration:  3245
 C         0.207215        -0.348842        -0.990613
 C         1.518293        -0.092773        -0.255636
 C         2.466691         0.804971        -0.980702
 C         3.524821         0.923121         0.114046
 C         2.694885         0.843875         1.430973
 O         1.294844         0.586411         1.061928
 C         3.570611        -0.316200         0.969363
 O         4.785776        -0.709711         1.494026
 C         2.528371        -1.217876         0.196713
 H        -0.153115         0.635496        -1.126185
 H         0.363420        -0.946014        -1.972817
 H        -0.505342        -0.897933        -0.399413
 H         2.988199         0.494452        -1.845017
 H         2.079015         1.894122        -1.214794
 H         4.467606         1.624867        -0.090440
 H         2.975127         1.420674         2.304142
 H         4.641521        -0.521310         2.452525
 H         3.071491        -1.657362        -0.654917
 H         2.186173        -1.995022         0.773504
