19
Iteration:  1644
 C         0.117507        -0.388358        -0.687174
 C         1.547719        -0.146599        -0.217711
 C         2.500725         0.731936        -1.042071
 C         3.593731         0.959244        -0.044583
 C         2.776865         0.900471         1.302319
 O         1.399448         0.701647         1.005477
 C         3.527758        -0.308710         0.839385
 O         4.603084        -0.756552         1.553260
 C         2.523793        -1.245439         0.277027
 H        -0.439803        -0.461908         0.267969
 H        -0.159109         0.545762        -1.103364
 H         0.061195        -1.281966        -1.392289
 H         2.961740         0.308138        -1.902891
 H         2.183917         1.831196        -1.362894
 H         4.434443         1.551698        -0.240360
 H         3.116170         1.362121         2.220532
 H         5.206556         0.046877         1.708251
 H         2.920659        -1.946902        -0.467363
 H         2.147801        -1.871817         1.133475
