19
Iteration:   566
 C         0.208830        -0.570302        -0.704335
 C         1.520352        -0.031156        -0.198805
 C         2.485583         0.704666        -1.082105
 C         3.619799         0.844541        -0.027019
 C         2.791817         0.990078         1.298905
 O         1.422711         0.795810         0.982929
 C         3.581740        -0.311692         0.901423
 O         4.694105        -0.732648         1.498355
 C         2.324286        -1.145050         0.318489
 H        -0.367725        -0.710192         0.200957
 H        -0.298063         0.303717        -1.293144
 H         0.321512        -1.507174        -1.205119
 H         3.013255         0.106400        -1.992677
 H         2.172572         1.669896        -1.449573
 H         4.552387         1.316145        -0.191214
 H         2.966617         1.834119         1.938872
 H         4.502561        -0.983812         2.434593
 H         2.604587        -1.840033        -0.450127
 H         1.815387        -1.724235         1.152265
