19
Iteration:  1921
 C         0.094678        -0.496424        -0.822271
 C         1.501658        -0.116318        -0.205176
 C         2.426562         0.942560        -0.963969
 C         3.525964         0.984811         0.021588
 C         2.790730         0.854519         1.335594
 O         1.412565         0.683273         1.044227
 C         3.551475        -0.262310         0.862689
 O         4.658216        -0.795909         1.618107
 C         2.642294        -1.251107         0.165201
 H        -0.680516        -0.283554         0.000846
 H        -0.186798         0.212896        -1.694430
 H         0.059940        -1.549999        -1.189828
 H         2.801878         0.608366        -1.942565
 H         1.771842         1.892398        -1.044021
 H         4.441729         1.597621        -0.000378
 H         2.975809         1.467467         2.228691
 H         5.489005        -0.883816         1.063903
 H         3.040319        -1.849949        -0.709207
 H         2.289240        -2.037214         0.903221
