19
Iteration:  2960charge 0 multiplicity 1
 C         0.235468        -0.260368        -0.835529
 C         1.553313        -0.134142        -0.217524
 C         2.518704         0.738586        -0.983935
 C         3.486826         0.962492         0.096476
 C         2.665283         0.815129         1.379535
 O         1.337440         0.614925         0.978781
 C         3.512138        -0.336238         0.886567
 O         4.739364        -0.587448         1.560575
 C         2.602168        -1.294020         0.137534
 H         0.062089         0.378483        -1.621968
 H        -0.104918        -1.216961        -1.219574
 H        -0.556823        -0.140000        -0.036512
 H         3.005371         0.270726        -1.749300
 H         2.106951         1.722542        -1.334530
 H         4.533169         1.547991         0.198507
 H         2.740005         1.270085         2.341829
 H         4.559505        -1.231450         2.275608
 H         2.949722        -1.599032        -0.927388
 H         2.128725        -2.094520         0.813865
