19
Iteration:  1655charge 0 multiplicity 1
 C         0.145874        -0.412744        -0.702076
 C         1.539836        -0.120672        -0.195686
 C         2.613363         0.737607        -1.094132
 C         3.513554         1.022622         0.056659
 C         2.795446         0.851802         1.320029
 O         1.448395         0.765036         1.060356
 C         3.525576        -0.264667         0.784129
 O         4.576580        -0.753018         1.497627
 C         2.479151        -1.288689         0.313903
 H        -0.632699        -0.641914         0.055619
 H        -0.317584         0.161301        -1.459840
 H         0.182854        -1.447068        -1.242530
 H         2.986318         0.143224        -1.888673
 H         1.950059         1.673468        -1.505739
 H         4.455005         1.462795        -0.087981
 H         3.036952         1.333077         2.249000
 H         5.374568        -0.189101         1.429965
 H         2.771543        -1.947507        -0.517709
 H         1.975935        -1.798037         1.177969
