19
Iteration:  3107charge 0 multiplicity 1
 C         0.249560        -0.311018        -0.924917
 C         1.520125        -0.111789        -0.178968
 C         2.513623         0.789042        -1.049676
 C         3.464486         0.964711         0.102325
 C         2.689811         0.768614         1.395201
 O         1.353498         0.645695         1.034736
 C         3.551575        -0.333759         0.927068
 O         4.734414        -0.623195         1.538965
 C         2.558865        -1.286086         0.192998
 H        -0.429519         0.539271        -0.531156
 H         0.354040        -0.301875        -2.002976
 H        -0.399375        -1.152784        -0.773224
 H         2.988175         0.227965        -1.888008
 H         2.059844         1.633004        -1.506415
 H         4.423289         1.626106         0.052209
 H         3.001324         1.292543         2.258632
 H         4.528681        -0.832590         2.467717
 H         2.962566        -1.793022        -0.720778
 H         2.066529        -2.112032         0.828544
