19
Iteration:  1168
 C         0.127167        -0.571942        -0.674238
 C         1.502089        -0.079290        -0.182188
 C         2.425661         0.748597        -1.130800
 C         3.583855         0.932058        -0.026967
 C         2.783930         0.962779         1.297107
 O         1.417344         0.893020         0.996520
 C         3.559881        -0.284036         0.878938
 O         4.624326        -0.911148         1.634271
 C         2.575287        -1.133005         0.275511
 H        -0.542816        -1.022936         0.088105
 H        -0.358764         0.289825        -1.067925
 H         0.027658        -1.414679        -1.490479
 H         2.943238         0.107635        -1.967342
 H         2.142643         1.647242        -1.530160
 H         4.292387         1.667715        -0.084242
 H         3.057811         1.595635         2.166757
 H         5.419119        -0.779721         1.071091
 H         3.114781        -1.656840        -0.579572
 H         2.076438        -1.799737         0.989900
