19
Iteration:  4387charge 0 multiplicity 1
 C         0.290387        -0.522863        -0.858979
 C         1.578682        -0.062938        -0.222226
 C         2.505611         0.896291        -1.029494
 C         3.494815         1.020455         0.173770
 C         2.691349         0.963808         1.429662
 O         1.385210         0.705538         0.945924
 C         3.492960        -0.256126         0.963695
 O         4.703512        -0.921915         1.390584
 C         2.437165        -1.248564         0.269377
 H         0.580299        -1.114321        -1.774815
 H        -0.241592        -1.229973        -0.148841
 H        -0.435808         0.189678        -1.213835
 H         3.022349         0.265130        -1.721823
 H         2.075952         1.947561        -1.422159
 H         4.404465         1.531126         0.116828
 H         2.586429         1.520719         2.382155
 H         5.220823        -0.355746         1.936304
 H         2.969029        -1.831915        -0.494836
 H         2.040886        -1.702015         1.171314
