19
Iteration:  1422
 C         0.154444        -0.574397        -0.757567
 C         1.447641        -0.044162        -0.105761
 C         2.575083         0.731462        -1.117209
 C         3.626112         1.026732        -0.021561
 C         2.752524         0.903524         1.304836
 O         1.343060         0.792400         1.093526
 C         3.585185        -0.251793         0.831754
 O         4.731930        -0.848423         1.409739
 C         2.450116        -1.107111         0.352218
 H        -0.587548        -0.597929         0.064849
 H        -0.188579        -0.075736        -1.750883
 H         0.331577        -1.584028        -0.969064
 H         2.942439        -0.150514        -1.831622
 H         2.217110         1.516398        -1.715105
 H         4.473482         1.627473         0.058016
 H         3.146472         1.438679         2.155029
 H         4.440120        -1.035801         2.373508
 H         2.561941        -1.665287        -0.559883
 H         1.910548        -1.537577         1.207518
