19
Iteration:  2520charge 0 multiplicity 1
 C         0.317433        -0.476535        -0.938470
 C         1.588853        -0.117777        -0.220679
 C         2.498118         0.867724        -1.002961
 C         3.432919         1.081228         0.112342
 C         2.724182         0.912188         1.444045
 O         1.395333         0.644762         1.065597
 C         3.446845        -0.301112         0.903456
 O         4.694967        -0.785364         1.460407
 C         2.541358        -1.252270         0.204873
 H        -0.091399         0.289471        -1.693606
 H         0.232867        -1.443047        -1.385038
 H        -0.412537        -0.598920        -0.188955
 H         3.009275         0.370979        -1.894344
 H         1.900333         1.681490        -1.299675
 H         4.318216         1.558428         0.075811
 H         2.758724         1.482323         2.372017
 H         4.874709        -0.749813         2.469866
 H         2.924194        -1.700610        -0.694020
 H         1.983468        -1.959888         0.719944
