19
Iteration:  2775
 C         0.315763        -0.561361        -0.876794
 C         1.585706        -0.131328        -0.244860
 C         2.508331         0.895387        -0.991395
 C         3.543330         1.066512         0.119659
 C         2.743310         0.932400         1.397593
 O         1.354977         0.727746         0.976143
 C         3.495175        -0.307933         0.876081
 O         4.585984        -0.835320         1.441241
 C         2.520466        -1.228230         0.281391
 H        -0.076731         0.319155        -1.226575
 H         0.574344        -1.336987        -1.593049
 H        -0.194784        -1.160049        -0.045204
 H         2.969189         0.630760        -1.891839
 H         1.881118         1.900557        -1.172275
 H         4.355490         1.674396         0.045873
 H         2.940863         1.476548         2.357280
 H         4.456535        -0.883074         2.448995
 H         2.915524        -1.865755        -0.553916
 H         2.111939        -1.777474         1.132993
