19
Iteration:   572charge 0 multiplicity 1
 C         0.185129        -0.617856        -0.678930
 C         1.516453        -0.089983        -0.236868
 C         2.514894         0.733804        -1.074867
 C         3.638843         0.850720        -0.010108
 C         2.813477         1.019180         1.287238
 O         1.420648         0.852504         0.957852
 C         3.507815        -0.339742         0.919289
 O         4.690538        -0.757417         1.479412
 C         2.359937        -1.115192         0.340660
 H        -0.409924        -0.727301         0.252534
 H        -0.270507         0.046449        -1.317059
 H         0.262294        -1.644838        -1.204685
 H         2.863409         0.398469        -1.960922
 H         2.166920         1.807772        -1.193759
 H         4.640706         1.367437        -0.146166
 H         3.120243         1.853309         1.957640
 H         4.392717        -1.074255         2.387606
 H         2.649641        -1.840063        -0.470802
 H         1.907633        -1.750455         1.064187
