19
Iteration:   366
 C         0.054507        -0.312570        -0.763604
 C         1.503133        -0.156475        -0.272474
 C         2.542913         0.648175        -1.089652
 C         3.575155         0.829139        -0.000920
 C         2.771077         1.010905         1.194208
 O         1.402963         0.715324         1.048625
 C         3.577966        -0.284482         0.942321
 O         4.809596        -0.685835         1.526596
 C         2.422309        -1.289942         0.367891
 H        -0.560710         0.003524         0.139064
 H        -0.095312         0.337333        -1.536784
 H        -0.161639        -1.413448        -1.069519
 H         2.781402         0.239642        -2.107887
 H         2.113983         1.664086        -1.372492
 H         4.439816         1.502039        -0.094281
 H         2.926817         1.777304         1.892713
 H         4.555220        -0.900378         2.447008
 H         2.817987        -2.059278        -0.335191
 H         1.962765        -1.718551         1.225678
