19
Iteration:  4381
 C         0.284799        -0.560972        -0.851297
 C         1.582471        -0.059784        -0.261314
 C         2.529813         0.895671        -0.988455
 C         3.483799         1.058296         0.159331
 C         2.727005         0.965122         1.491430
 O         1.351090         0.734586         0.919649
 C         3.463798        -0.301470         0.915972
 O         4.720056        -0.937445         1.400468
 C         2.452843        -1.232910         0.285701
 H         0.347571        -1.294163        -1.652735
 H        -0.299276        -1.059251        -0.068555
 H        -0.316807         0.305092        -1.306243
 H         3.081559         0.389791        -1.881679
 H         2.107058         1.743310        -1.352412
 H         4.406568         1.764119         0.146732
 H         2.623853         1.511406         2.434928
 H         5.248114        -0.189355         1.819193
 H         3.001391        -1.940314        -0.369466
 H         1.901873        -1.913868         1.016091
