19
Iteration:  3596
 C         0.279812        -0.481278        -0.782272
 C         1.531151        -0.089879        -0.262242
 C         2.480250         0.919744        -0.940703
 C         3.540801         1.040243         0.097658
 C         2.739839         0.828854         1.378345
 O         1.366730         0.623821         0.939805
 C         3.529779        -0.292153         0.840009
 O         4.666291        -0.827088         1.568466
 C         2.540282        -1.175216         0.137540
 H        -0.387660         0.350844        -1.130804
 H         0.415912        -1.102928        -1.640573
 H        -0.350511        -0.988518        -0.102958
 H         2.754401         0.654729        -1.908939
 H         1.786010         1.845579        -0.851214
 H         4.521204         1.719240         0.042160
 H         2.949659         1.514580         2.186781
 H         4.435538        -0.978923         2.464639
 H         3.095979        -1.610413        -0.728391
 H         2.087775        -1.918402         0.841172
