19
Iteration:  1750charge 0 multiplicity 1
 C         0.037670        -0.437194        -0.687593
 C         1.493284        -0.073388        -0.160494
 C         2.600696         0.810050        -1.098853
 C         3.568924         0.936204        -0.016508
 C         2.778732         0.880535         1.298562
 O         1.364588         0.681242         1.048019
 C         3.517289        -0.347962         0.856756
 O         4.743685        -0.713750         1.583541
 C         2.512510        -1.238254         0.170173
 H        -0.516181        -1.288701        -0.128412
 H        -0.539962         0.506771        -0.688424
 H         0.043708        -0.726930        -1.709595
 H         2.975163         0.047172        -1.900355
 H         2.306581         1.661459        -1.568177
 H         4.515269         1.421418        -0.107468
 H         3.014233         1.505852         2.155819
 H         4.908602        -0.155493         2.427110
 H         2.984616        -1.537198        -0.731380
 H         2.004344        -2.033714         0.732307
