19
Iteration:  1462charge 0 multiplicity 1
 C         0.200936        -0.457950        -0.641398
 C         1.571805        -0.125934        -0.192191
 C         2.409764         0.829421        -1.050151
 C         3.565208         0.933382        -0.084759
 C         2.761516         0.917254         1.261723
 O         1.411656         0.777714         0.908739
 C         3.554698        -0.322110         0.931667
 O         4.664332        -0.837631         1.528238
 C         2.526966        -1.210795         0.315945
 H        -0.405212        -0.201725         0.173624
 H        -0.195477         0.248658        -1.317045
 H        -0.083088        -1.488012        -1.125227
 H         2.625406         0.469365        -2.103568
 H         1.767615         1.707462        -1.150073
 H         4.440082         1.462975        -0.133178
 H         2.870614         1.464110         2.228010
 H         4.790850        -0.498122         2.387084
 H         3.143867        -1.702100        -0.496220
 H         2.279602        -2.023422         0.976214
