19
Iteration:   592charge 0 multiplicity 1
 C         0.148539        -0.664236        -0.643042
 C         1.558226        -0.046930        -0.181705
 C         2.468375         0.885607        -1.108338
 C         3.611112         0.945314        -0.070332
 C         2.754985         1.019499         1.263683
 O         1.434894         0.973740         0.863946
 C         3.551277        -0.303976         0.967156
 O         4.630700        -0.879305         1.491904
 C         2.490576        -1.305502         0.387528
 H        -0.478301        -0.709168         0.310362
 H        -0.371457        -0.093030        -1.382470
 H         0.395773        -1.709507        -0.914092
 H         2.903457         0.445210        -1.987609
 H         1.964575         1.931576        -1.401250
 H         4.700036         1.458675        -0.218816
 H         2.886041         1.500874         2.252044
 H         4.407685        -1.444121         2.301086
 H         3.067113        -2.063179        -0.265994
 H         2.017299        -1.929132         1.150951
