19
Iteration:   963
 C         0.144094        -0.374005        -0.778281
 C         1.557648        -0.175543        -0.224887
 C         2.489815         0.700436        -1.036537
 C         3.568424         0.931778        -0.036142
 C         2.787396         0.949874         1.296770
 O         1.414321         0.770661         1.023252
 C         3.529480        -0.324278         0.972570
 O         4.740558        -0.689277         1.403143
 C         2.397123        -1.274459         0.390829
 H        -0.478722        -0.787888         0.022105
 H        -0.236321         0.545908        -1.195972
 H         0.215194        -1.236727        -1.579520
 H         2.983544         0.196030        -1.871454
 H         1.977195         1.583899        -1.459489
 H         4.562973         1.358236        -0.077938
 H         2.900158         1.519874         2.200615
 H         4.788811        -0.465083         2.386042
 H         2.737084        -2.013779        -0.398313
 H         1.925205        -1.961495         1.063334
