19
Iteration:   252
 C         0.101003        -0.224824        -0.769829
 C         1.476449        -0.087850        -0.153044
 C         2.531333         0.498495        -1.171607
 C         3.513066         0.873879        -0.161143
 C         2.772280         0.931096         1.304067
 O         1.434752         0.626183         1.041485
 C         3.562888        -0.270955         0.918818
 O         4.740580        -0.671509         1.577923
 C         2.505381        -1.198438         0.394244
 H        -0.404679        -1.099130        -0.448351
 H        -0.580838         0.693335        -0.406049
 H         0.121541        -0.129700        -1.833465
 H         2.852860        -0.305944        -1.860110
 H         2.329415         1.359313        -1.906893
 H         4.390853         1.686240        -0.116360
 H         2.983210         1.800358         1.859993
 H         4.461150        -0.715348         2.546775
 H         2.911762        -1.783111        -0.385962
 H         2.123195        -1.799576         1.231140
