19
Iteration:  1136charge 0 multiplicity 1
 C         0.227416        -0.535683        -0.664004
 C         1.594203        -0.156242        -0.240708
 C         2.505463         0.779505        -1.095331
 C         3.577898         0.984819        -0.020482
 C         2.782244         1.023072         1.259095
 O         1.438217         0.754015         0.991785
 C         3.486310        -0.330303         0.866027
 O         4.611456        -0.827820         1.499801
 C         2.385991        -1.190999         0.444579
 H        -0.226187        -1.230207         0.025795
 H        -0.333495         0.355208        -0.552182
 H         0.165751        -0.728578        -1.818385
 H         3.026006         0.209575        -2.021946
 H         2.236263         1.714144        -1.462723
 H         4.441766         1.520685         0.002183
 H         3.044078         1.580146         2.193087
 H         5.339061        -0.333936         1.175293
 H         2.669585        -2.037682        -0.282335
 H         1.662916        -1.519607         1.214601
