19
Iteration:  3738
 C         0.198739        -0.469168        -0.768274
 C         1.594648        -0.123640        -0.292409
 C         2.502142         0.921687        -1.004121
 C         3.556273         1.060997         0.178034
 C         2.683157         0.834720         1.414293
 O         1.300641         0.678537         0.956580
 C         3.565664        -0.339706         0.822603
 O         4.685192        -0.798140         1.564061
 C         2.604365        -1.237939         0.089159
 H        -0.468365         0.346013        -0.376103
 H         0.150004        -0.614600        -1.892214
 H        -0.226680        -1.334840        -0.299202
 H         2.985154         0.674927        -1.919678
 H         1.945187         1.990303        -1.026580
 H         4.346295         1.787496         0.096931
 H         2.892630         1.448711         2.331575
 H         4.234116        -1.088347         2.344780
 H         3.057124        -1.770770        -0.791982
 H         2.390286        -2.049447         0.854143
