19
Iteration:  4254
 C         0.275969        -0.556274        -0.865594
 C         1.585127        -0.060343        -0.192021
 C         2.574951         0.906918        -0.893343
 C         3.548027         1.147180         0.250742
 C         2.550010         0.869839         1.424289
 O         1.263409         0.650321         1.010708
 C         3.551177        -0.292239         0.876220
 O         4.776865        -0.808617         1.315181
 C         2.504427        -1.167981         0.207384
 H        -0.577856        -0.609478        -0.182662
 H         0.064810         0.044910        -1.734245
 H         0.324448        -1.533450        -1.389358
 H         2.965683         0.306876        -1.676192
 H         2.094941         1.901718        -1.372507
 H         4.565109         1.751770         0.298029
 H         2.767822         0.933194         2.505677
 H         4.477706        -1.599785         1.719178
 H         2.984829        -1.475733        -0.731826
 H         2.148032        -2.101394         0.587141
