19
Iteration:  2986
 C         0.205316        -0.371145        -0.918408
 C         1.541615        -0.111528        -0.287240
 C         2.571741         0.825053        -1.030934
 C         3.526427         1.078757         0.128399
 C         2.730101         0.795892         1.409348
 O         1.360565         0.570755         1.050247
 C         3.558929        -0.278904         0.828514
 O         4.733408        -0.692021         1.512570
 C         2.454792        -1.262980         0.281574
 H        -0.095361         0.307706        -1.782514
 H        -0.012206        -1.451316        -1.229735
 H        -0.551404        -0.358829        -0.214656
 H         3.089784         0.475852        -1.951124
 H         2.145558         1.796012        -1.305053
 H         4.312983         1.680055         0.226705
 H         2.759865         1.388457         2.361371
 H         4.460209        -1.070595         2.341724
 H         2.818100        -1.835547        -0.590638
 H         2.044739        -1.851919         1.130162
