19
Iteration:  4326charge 0 multiplicity 1
 C         0.229663        -0.414476        -0.912489
 C         1.523058        -0.155034        -0.264554
 C         2.453782         0.890157        -1.005635
 C         3.484296         1.051077         0.022600
 C         2.731829         0.838247         1.364134
 O         1.433833         0.590151         1.145900
 C         3.534607        -0.337660         0.860157
 O         4.646147        -0.710374         1.725355
 C         2.535676        -1.184441         0.068625
 H         0.066468        -1.473339        -0.836801
 H        -0.511824         0.183667        -0.313635
 H         0.118656         0.037616        -1.934788
 H         2.922104         0.486690        -1.974886
 H         1.911905         1.719082        -1.228351
 H         4.422561         1.695267         0.211885
 H         2.976811         1.291595         2.362934
 H         5.132487        -1.304099         1.145800
 H         3.045718        -1.688692        -0.774466
 H         2.253566        -2.036106         0.750201
