19
Iteration:    18
 C         0.369271        -0.596505        -0.631077
 C         1.580990        -0.034780        -0.140877
 C         2.472488         0.700133        -1.043065
 C         3.598969         0.841430        -0.022414
 C         2.773843         0.979557         1.240772
 O         1.343127         1.004815         0.953416
 C         3.476821        -0.303557         0.841524
 O         4.639423        -0.797454         1.462508
 C         2.430561        -1.221167         0.355108
 H         0.055152        -1.361925         0.134507
 H        -0.437757         0.134472        -0.604647
 H         0.498881        -0.924809        -1.708924
 H         2.657961         0.096148        -2.019560
 H         1.986775         1.608076        -1.391838
 H         4.515645         1.532077        -0.229815
 H         3.106560         1.405012         2.168667
 H         4.460668        -1.496498         2.070632
 H         2.714745        -1.825655        -0.543619
 H         1.823604        -1.609068         1.193720
