19
Iteration:  2008
 C         0.212528        -0.346629        -0.797115
 C         1.538524        -0.101799        -0.203525
 C         2.484469         0.868388        -1.054834
 C         3.512397         0.943773        -0.004638
 C         2.722160         0.860290         1.373317
 O         1.344753         0.563545         1.063630
 C         3.555903        -0.291554         0.831898
 O         4.702840        -0.800384         1.522744
 C         2.560903        -1.239204         0.257563
 H        -0.041840        -1.474293        -0.587322
 H        -0.587674         0.380862        -0.362203
 H         0.248752        -0.273939        -1.910922
 H         2.857979         0.616902        -2.033057
 H         1.958752         1.893978        -1.253941
 H         4.274202         1.805497         0.010104
 H         2.898804         1.393957         2.290173
 H         5.075440         0.074949         1.879346
 H         2.899674        -2.001400        -0.518355
 H         2.148664        -1.718039         1.200794
