19
Iteration:  2812
 C         0.163048        -0.312834        -0.889494
 C         1.505104        -0.123040        -0.201218
 C         2.567658         0.792158        -1.061137
 C         3.540962         0.915991         0.112310
 C         2.703013         0.878089         1.307253
 O         1.284179         0.592927         1.041000
 C         3.600144        -0.316418         0.883228
 O         4.755110        -0.641898         1.612657
 C         2.542135        -1.265113         0.191852
 H        -0.723434         0.396395        -0.674476
 H         0.195699        -0.384605        -2.065474
 H        -0.371662        -1.183608        -0.520609
 H         3.028234         0.139075        -1.917331
 H         2.299035         1.802584        -1.437243
 H         4.469875         1.648527         0.039624
 H         2.942318         1.478722         2.143999
 H         4.471739        -0.945978         2.539760
 H         3.051685        -1.769115        -0.604096
 H         2.081874        -1.982879         0.855879
