19
Iteration:  3760charge 0 multiplicity 1
 C         0.112800        -0.383834        -0.778839
 C         1.582224        -0.045326        -0.319034
 C         2.502195         0.939329        -1.039751
 C         3.579292         1.034684         0.094018
 C         2.684405         0.763193         1.356365
 O         1.397570         0.516372         0.983825
 C         3.522155        -0.385993         0.921665
 O         4.701863        -0.652479         1.625109
 C         2.591557        -1.201840         0.125454
 H        -0.633405         0.287915        -0.275245
 H         0.182227        -0.426259        -1.884016
 H        -0.141046        -1.410809        -0.460623
 H         2.873859         0.507475        -1.931148
 H         2.020814         2.041177        -1.198821
 H         4.447344         1.597375         0.105421
 H         2.798723         1.318595         2.354560
 H         4.525272        -1.437028         2.248607
 H         3.045460        -1.714841        -0.763165
 H         1.936635        -1.985208         0.670815
