19
Iteration:  3321
 C         0.206436        -0.581111        -0.815151
 C         1.574319         0.006514        -0.276323
 C         2.594404         0.894656        -1.013980
 C         3.498723         1.003716         0.068417
 C         2.688787         0.905098         1.351197
 O         1.305575         0.638709         1.050583
 C         3.551384        -0.314335         0.942817
 O         4.669956        -0.795319         1.615743
 C         2.559292        -1.131886         0.117799
 H        -0.485403         0.051954        -0.316841
 H         0.155275        -0.325225        -1.990715
 H        -0.031851        -1.608460        -0.586254
 H         2.965023         0.501340        -1.924320
 H         2.006184         1.802405        -1.274774
 H         4.462697         1.695005         0.240766
 H         3.132504         1.496018         2.148786
 H         4.580709        -1.741560         1.629322
 H         3.072856        -1.627384        -0.726137
 H         1.988349        -1.884282         0.578017
