19
Iteration:  1697charge 0 multiplicity 1
 C         0.192585        -0.556360        -0.838995
 C         1.551563        -0.098408        -0.176255
 C         2.424719         0.839690        -1.059738
 C         3.593764         0.912742         0.021961
 C         2.715298         1.049429         1.361554
 O         1.373377         0.800985         1.019912
 C         3.545704        -0.276884         0.949620
 O         4.729833        -0.862054         1.422512
 C         2.500578        -1.222639         0.421066
 H        -0.621324        -0.545965        -0.064574
 H        -0.145163         0.121709        -1.583819
 H         0.457448        -1.514657        -1.342322
 H         2.734703         0.590787        -2.078484
 H         1.929847         1.827727        -1.104437
 H         4.474329         1.474008         0.056996
 H         2.866848         1.869564         2.059531
 H         4.812395        -1.757641         0.907743
 H         2.960845        -1.738901        -0.401868
 H         2.126814        -1.873691         1.255476
