19
Iteration:  4985charge 0 multiplicity 1
 C         0.099457        -0.292275        -0.759749
 C         1.572773        -0.133629        -0.260581
 C         2.535451         0.718602        -1.097574
 C         3.500542         0.973042         0.055267
 C         2.712120         0.856855         1.306675
 O         1.398176         0.652748         0.976722
 C         3.540045        -0.328849         0.951607
 O         4.766460        -0.705350         1.557590
 C         2.520259        -1.267608         0.270563
 H        -0.532315        -1.106148        -0.427998
 H        -0.367952         0.638943        -0.487189
 H         0.259861        -0.182299        -1.855912
 H         2.977141         0.308864        -2.114196
 H         1.991490         1.546762        -1.439046
 H         4.438955         1.540279         0.072234
 H         2.753652         1.535337         2.160400
 H         4.671072        -0.676005         2.563983
 H         2.941052        -1.841994        -0.593556
 H         2.007843        -1.998220         0.905124
