19
Iteration:  4359
 C         0.235699        -0.492691        -0.816883
 C         1.587784        -0.113192        -0.262651
 C         2.565866         0.905715        -0.993265
 C         3.548122         1.000966         0.163226
 C         2.626184         0.827052         1.355075
 O         1.311438         0.725319         1.000688
 C         3.525451        -0.246498         0.883374
 O         4.665965        -0.872977         1.497758
 C         2.526588        -1.179276         0.216914
 H         0.210008        -1.518062        -1.175321
 H        -0.501486        -0.573134        -0.010286
 H        -0.152027         0.048446        -1.732074
 H         3.033741         0.450456        -1.943907
 H         2.139660         1.799364        -1.221844
 H         4.447421         1.738825         0.290906
 H         2.692415         1.326866         2.336545
 H         5.484701        -0.415496         1.338297
 H         2.886201        -1.864381        -0.583071
 H         2.262976        -1.814998         1.105612
