19
Iteration:  2822
 C         0.150353        -0.314870        -0.854752
 C         1.559175        -0.135278        -0.255918
 C         2.615325         0.710746        -1.011106
 C         3.556081         0.996975         0.048664
 C         2.700279         0.812150         1.349069
 O         1.361990         0.592790         1.044239
 C         3.519424        -0.304790         0.870373
 O         4.676801        -0.568569         1.586469
 C         2.525811        -1.285595         0.212507
 H        -0.275956         0.623435        -0.441391
 H         0.254419        -0.161323        -2.023989
 H        -0.297146        -1.297365        -0.690320
 H         2.996613         0.125281        -1.925430
 H         2.014320         1.603835        -1.403981
 H         4.531224         1.644835         0.157767
 H         2.876951         1.263422         2.294748
 H         4.374013        -1.020616         2.408853
 H         2.879969        -1.697585        -0.700226
 H         2.046623        -1.980156         0.857142
