19
Iteration:  1500
 C         0.122931        -0.422742        -0.745287
 C         1.496395        -0.056826        -0.213273
 C         2.489335         0.688369        -1.126368
 C         3.577990         0.980135        -0.014436
 C         2.865047         0.863090         1.287097
 O         1.480822         0.649141         1.071800
 C         3.505489        -0.311418         0.845402
 O         4.712156        -0.669993         1.555445
 C         2.390469        -1.197644         0.316565
 H        -0.412546        -1.042988         0.048480
 H        -0.322931         0.620399        -0.889046
 H         0.178505        -0.946143        -1.643641
 H         2.832072        -0.043671        -1.904070
 H         2.180161         1.616542        -1.692365
 H         4.469281         1.649857        -0.346688
 H         3.058444         1.339398         2.235602
 H         4.532208        -0.416674         2.489377
 H         2.664699        -1.740692        -0.581352
 H         1.904156        -1.975008         0.980700
