19
Iteration:  1709charge 0 multiplicity 1
 C         0.249636        -0.526332        -0.805681
 C         1.527477        -0.170977        -0.155611
 C         2.439549         0.887054        -1.035244
 C         3.554468         1.019465         0.032514
 C         2.832007         1.011275         1.304553
 O         1.415523         0.750808         0.981057
 C         3.507436        -0.247256         0.924274
 O         4.675681        -0.813541         1.428832
 C         2.483482        -1.276502         0.405216
 H        -0.533534        -0.763227        -0.067254
 H        -0.023093         0.316080        -1.370502
 H         0.120935        -1.438801        -1.486299
 H         2.745214         0.461486        -1.952970
 H         1.856492         1.879825        -1.207912
 H         4.516072         1.530389        -0.141818
 H         2.933624         1.575657         2.229368
 H         4.495460        -1.753017         1.487352
 H         2.802891        -1.984725        -0.371294
 H         2.040986        -1.930103         1.211540
