19
Iteration:  4960
 C         0.216099        -0.327955        -0.990510
 C         1.537520        -0.113857        -0.173792
 C         2.480290         0.717421        -0.961765
 C         3.555473         0.895281         0.042527
 C         2.784050         0.963815         1.302164
 O         1.342854         0.619017         1.098065
 C         3.539216        -0.285894         0.864082
 O         4.742285        -0.681778         1.433917
 C         2.459438        -1.241132         0.389810
 H        -0.118450        -1.345511        -0.938583
 H        -0.572042         0.331345        -0.541686
 H         0.346716         0.037907        -2.011737
 H         2.792311         0.149595        -1.828466
 H         1.992400         1.666852        -1.315810
 H         4.579969         1.442129        -0.020162
 H         2.958816         1.451117         2.227069
 H         4.531271        -0.974137         2.365338
 H         2.928379        -1.990403        -0.310252
 H         1.873735        -1.813764         1.119959
