19
Iteration:  3406
 C         0.287680        -0.478641        -0.935281
 C         1.615185        -0.081711        -0.221658
 C         2.540337         0.857471        -0.976105
 C         3.500334         1.029867         0.190375
 C         2.681504         0.858664         1.463729
 O         1.319136         0.744571         1.058409
 C         3.509633        -0.279760         0.833455
 O         4.669951        -0.836867         1.451806
 C         2.501987        -1.295990         0.209014
 H        -0.127654         0.328182        -1.532354
 H         0.299034        -1.442340        -1.586127
 H        -0.583021        -0.720945        -0.308156
 H         3.108495         0.284045        -1.812459
 H         1.962056         1.675922        -1.333527
 H         4.412392         1.774825         0.216952
 H         2.865981         1.352830         2.399386
 H         5.289125        -0.083577         1.755974
 H         2.919251        -1.774533        -0.732536
 H         1.922657        -1.996934         0.939506
