19
Iteration:  2559charge 0 multiplicity 1
 C         0.134694        -0.308104        -0.927967
 C         1.584245        -0.163457        -0.276223
 C         2.504222         0.864875        -1.021535
 C         3.526411         0.972064         0.047816
 C         2.657858         0.813353         1.387016
 O         1.320355         0.543933         1.024620
 C         3.602247        -0.283314         0.954631
 O         4.735550        -0.715139         1.565478
 C         2.564840        -1.264937         0.248878
 H        -0.371447         0.603621        -0.979133
 H         0.301557        -0.756088        -1.966030
 H        -0.457073        -0.977245        -0.215210
 H         2.990491         0.435663        -1.901787
 H         2.086426         1.850402        -1.351787
 H         4.449097         1.631852        -0.024080
 H         2.791564         1.369363         2.321034
 H         4.881387        -0.018075         2.165966
 H         3.054505        -1.825873        -0.578466
 H         2.021661        -1.908806         1.066452
