19
Iteration:  3255charge 0 multiplicity 1
 C         0.213194        -0.364155        -0.967663
 C         1.542015        -0.103908        -0.254412
 C         2.499491         0.846384        -1.014552
 C         3.501549         0.988626         0.143924
 C         2.728342         0.878405         1.437448
 O         1.324158         0.560064         1.086026
 C         3.528295        -0.345560         0.901869
 O         4.790740        -0.734520         1.501778
 C         2.510367        -1.164293         0.208023
 H        -0.453337         0.404862        -1.183872
 H         0.563759        -0.696288        -2.064973
 H        -0.381111        -1.180155        -0.515122
 H         2.737380         0.165170        -1.849401
 H         2.064620         1.805569        -1.472401
 H         4.592873         1.437941         0.015205
 H         2.658986         1.394123         2.382241
 H         4.769017        -0.590991         2.515601
 H         2.956114        -1.780800        -0.574147
 H         1.914316        -1.754444         0.819481
