19
Iteration:   511charge 0 multiplicity 1
 C         0.146916        -0.224116        -0.712875
 C         1.520495        -0.130304        -0.177284
 C         2.471392         0.588910        -1.151067
 C         3.606367         0.819088        -0.079256
 C         2.746253         0.993585         1.154851
 O         1.363041         0.678321         0.972538
 C         3.551685        -0.293392         0.976644
 O         4.763808        -0.650997         1.560718
 C         2.475498        -1.293196         0.426620
 H        -0.380630        -1.101580        -0.395145
 H        -0.424443         0.702531        -0.326844
 H         0.209993        -0.261690        -1.802236
 H         2.796137         0.039790        -2.161763
 H         2.046903         1.531302        -1.417849
 H         4.440542         1.328054        -0.288755
 H         2.845063         1.649388         2.019061
 H         4.825984        -0.889319         2.535720
 H         2.983268        -1.901264        -0.290366
 H         1.945480        -1.819138         1.269310
