19
Iteration:  1602
 C         0.085425        -0.450610        -0.716789
 C         1.553551        -0.116780        -0.191426
 C         2.453079         0.731479        -1.091537
 C         3.569143         0.966331        -0.087020
 C         2.866727         0.963115         1.253342
 O         1.436341         0.761352         1.047350
 C         3.572370        -0.292631         0.860325
 O         4.663616        -0.787224         1.580270
 C         2.536039        -1.237436         0.301933
 H        -0.420190        -1.261671        -0.204302
 H        -0.597391         0.312245        -0.400836
 H         0.049702        -0.537556        -1.889691
 H         2.703501         0.075949        -1.865567
 H         1.815464         1.593088        -1.545512
 H         4.384210         1.637409        -0.283466
 H         3.034162         1.508936         2.166700
 H         4.333119        -0.759982         2.502205
 H         2.964231        -1.770564        -0.582534
 H         2.045505        -1.901451         1.042775
