19
Iteration:  4944
 C         0.294422        -0.436979        -0.928374
 C         1.490684        -0.119780        -0.096597
 C         2.527927         0.782468        -1.057085
 C         3.538854         1.000702         0.011013
 C         2.711023         0.816495         1.415302
 O         1.390356         0.770770         1.050771
 C         3.559636        -0.320278         0.894264
 O         4.754475        -0.732800         1.440576
 C         2.370786        -1.221926         0.362786
 H         0.015665        -1.538178        -1.125585
 H        -0.649470         0.011330        -0.606800
 H         0.542315        -0.193703        -1.990339
 H         2.821940         0.370840        -2.079575
 H         2.006876         1.735970        -1.432516
 H         4.324279         1.640654        -0.100746
 H         3.021956         1.553551         2.182709
 H         4.681325        -1.351898         2.162841
 H         2.525865        -1.909869        -0.456903
 H         2.013278        -1.687781         1.302885
