19
Iteration:  1109
 C         0.099238        -0.400065        -0.848015
 C         1.461546        -0.082389        -0.084718
 C         2.457129         0.592037        -1.058490
 C         3.605848         0.879034        -0.060992
 C         2.774180         0.966864         1.329213
 O         1.362763         0.812376         0.969659
 C         3.581100        -0.330266         0.884142
 O         4.785548        -0.771687         1.570756
 C         2.457698        -1.205145         0.396157
 H        -0.312841        -1.346707        -0.366746
 H        -0.671025         0.441463        -0.612927
 H         0.329678        -0.470497        -1.859526
 H         2.853753         0.045161        -1.830558
 H         2.131707         1.611488        -1.514584
 H         4.543366         1.612012        -0.164510
 H         2.921703         1.589777         2.175905
 H         5.410952        -0.215884         1.152352
 H         2.681526        -1.769474        -0.480673
 H         2.034332        -1.948733         1.102835
