19
Iteration:  4835
 C         0.250419        -0.342355        -0.927547
 C         1.554530        -0.065005        -0.226214
 C         2.431228         0.886477        -0.968394
 C         3.584166         0.861488         0.041485
 C         2.699380         0.847237         1.462970
 O         1.314988         0.587162         1.074543
 C         3.552967        -0.301273         0.850827
 O         4.778715        -0.690091         1.468441
 C         2.463893        -1.253591         0.236756
 H        -0.616143        -0.566363        -0.273155
 H         0.101470         0.545254        -1.537802
 H         0.424073        -1.234096        -1.628238
 H         2.680818         0.471643        -1.904399
 H         1.918306         1.873693        -0.875002
 H         4.543923         1.333382        -0.287796
 H         2.943796         1.492176         2.253423
 H         4.701698        -0.923606         2.431232
 H         2.961282        -1.816595        -0.563118
 H         1.941001        -1.884225         0.987246
