19
Iteration:  3701
 C         0.300238        -0.522658        -0.965574
 C         1.563830        -0.051059        -0.292061
 C         2.508245         0.952001        -1.024495
 C         3.494619         1.052579         0.124898
 C         2.720886         0.872501         1.456871
 O         1.290606         0.634978         1.216664
 C         3.559144        -0.286314         0.881415
 O         4.681568        -0.880285         1.405078
 C         2.511892        -1.158809         0.241830
 H        -0.258242         0.239865        -1.568342
 H         0.786545        -1.336352        -1.737483
 H        -0.258651        -1.239901        -0.219895
 H         2.933838         0.525109        -2.043267
 H         2.023430         1.856585        -1.380041
 H         4.498251         1.661274         0.054316
 H         2.909191         1.609692         2.219452
 H         4.761621        -0.907910         2.389782
 H         2.816543        -1.754363        -0.647059
 H         1.859778        -1.786966         0.844824
