19
Iteration:  1712charge 0 multiplicity 1
 C         0.241322        -0.512123        -0.790159
 C         1.540638        -0.172812        -0.153366
 C         2.469034         0.866893        -1.007747
 C         3.530016         1.046759         0.010100
 C         2.829657         0.989157         1.303334
 O         1.417977         0.736256         0.978105
 C         3.507223        -0.278549         0.898033
 O         4.674242        -0.797976         1.441267
 C         2.475701        -1.247413         0.391378
 H        -0.485262        -0.763478        -0.049345
 H        -0.095501         0.393316        -1.344173
 H         0.209595        -1.442468        -1.519063
 H         2.756826         0.402708        -1.937230
 H         1.781409         1.860228        -1.220856
 H         4.542725         1.570203        -0.218129
 H         3.016446         1.506731         2.254515
 H         4.417445        -1.701123         1.633151
 H         2.853756        -2.031921        -0.348391
 H         1.946993        -1.859314         1.149025
