19
Iteration:  1227
 C         0.092868        -0.353581        -0.785429
 C         1.524889        -0.163530        -0.232512
 C         2.450719         0.745622        -1.065124
 C         3.565206         0.973436        -0.029070
 C         2.782484         0.847748         1.308606
 O         1.433308         0.687957         0.970913
 C         3.597604        -0.273248         0.810881
 O         4.768054        -0.652088         1.627543
 C         2.437412        -1.299307         0.414240
 H        -0.506310        -0.211807         0.102528
 H        -0.223351         0.564176        -1.421474
 H        -0.074281        -1.286534        -1.305739
 H         2.779590         0.497005        -2.058797
 H         1.788721         1.714354        -1.182728
 H         4.476238         1.603247        -0.282669
 H         2.834960         1.426886         2.229929
 H         5.066726        -1.494908         1.161197
 H         2.944121        -2.105259        -0.156669
 H         1.822538        -1.762120         1.211712
