19
Iteration:  3865
 C         0.266390        -0.521081        -0.848743
 C         1.555099        -0.082122        -0.227400
 C         2.463223         0.911311        -0.919546
 C         3.515637         1.115897         0.177244
 C         2.709413         0.770502         1.401913
 O         1.313081         0.676137         1.069193
 C         3.535749        -0.271715         0.837940
 O         4.699913        -0.851168         1.484729
 C         2.607103        -1.149208         0.013349
 H        -0.269736         0.027083        -1.635780
 H         0.219251        -1.504308        -1.348525
 H        -0.426269        -0.663601        -0.024033
 H         2.991841         0.725862        -1.919381
 H         1.952959         1.823318        -1.112748
 H         4.389004         1.654053         0.278490
 H         2.950129         1.097370         2.453409
 H         4.541150        -0.830908         2.449650
 H         2.919537        -1.627821        -0.924856
 H         2.230829        -1.940760         0.631110
