19
Iteration:  4334charge 0 multiplicity 1
 C         0.225360        -0.416273        -0.874834
 C         1.591951        -0.080003        -0.259474
 C         2.473269         0.876299        -1.028281
 C         3.505580         1.084078         0.093456
 C         2.791261         0.827152         1.338344
 O         1.359158         0.562174         1.111486
 C         3.519730        -0.311939         0.940013
 O         4.632840        -0.750971         1.673702
 C         2.532880        -1.193297         0.109854
 H         0.016414        -1.529933        -0.988493
 H        -0.695393        -0.130956        -0.240930
 H         0.135568        -0.055188        -1.914217
 H         2.888128         0.402603        -1.947244
 H         1.947307         1.836652        -1.373269
 H         4.365389         1.620876        -0.134072
 H         2.986238         1.397454         2.240466
 H         5.357157        -1.029030         1.139454
 H         2.957842        -1.617185        -0.848857
 H         2.023275        -2.064622         0.621985
