19
Iteration:  3597charge 0 multiplicity 1
 C         0.279972        -0.478334        -0.781022
 C         1.532270        -0.084659        -0.262299
 C         2.483351         0.910637        -0.936413
 C         3.539638         1.040763         0.102645
 C         2.745579         0.821582         1.377498
 O         1.361464         0.623110         0.935129
 C         3.527051        -0.290200         0.834921
 O         4.665805        -0.822581         1.570616
 C         2.546485        -1.173757         0.137875
 H        -0.375753         0.383728        -1.137154
 H         0.379654        -1.118293        -1.610267
 H        -0.388377        -0.990107        -0.083253
 H         2.770640         0.691637        -1.898382
 H         1.775224         1.812475        -0.876508
 H         4.497977         1.738832         0.044373
 H         2.974887         1.491411         2.153876
 H         4.426372        -0.995653         2.451748
 H         3.088778        -1.612800        -0.713725
 H         2.102095        -1.924705         0.823233
