19
Iteration:  1559
 C         0.171305        -0.560640        -0.756452
 C         1.468303        -0.061373        -0.280502
 C         2.453968         0.732365        -1.127406
 C         3.604528         0.932689         0.031408
 C         2.762860         0.980747         1.343549
 O         1.413971         0.880819         0.985156
 C         3.483134        -0.307965         0.970338
 O         4.851204        -0.800766         1.454408
 C         2.412102        -1.187618         0.425796
 H        -0.018716        -1.532845        -0.336705
 H        -0.644222        -0.028656        -0.332867
 H        -0.054280        -0.565648        -1.920948
 H         2.746592         0.198332        -1.968709
 H         2.086086         1.747047        -1.435780
 H         4.581460         1.304028         0.005596
 H         3.022506         1.761380         2.055041
 H         4.702846        -1.712401         1.654207
 H         2.779725        -1.906316        -0.342528
 H         1.825842        -1.629713         1.236013
