19
Iteration:  4150
 C         0.164248        -0.438957        -0.823632
 C         1.591082        -0.047724        -0.302309
 C         2.510671         1.017197        -0.911076
 C         3.549453         1.033596         0.235121
 C         2.622430         0.823924         1.366939
 O         1.310918         0.433620         1.041306
 C         3.568384        -0.306857         0.890327
 O         4.744602        -0.725139         1.446292
 C         2.602597        -1.196769         0.065901
 H        -0.262816         0.529282        -1.200602
 H        -0.009844        -1.162416        -1.651369
 H        -0.221562        -0.683738         0.119423
 H         3.094105         0.575814        -1.846092
 H         2.055929         1.929517        -1.149635
 H         4.173604         1.888367         0.402268
 H         2.693440         1.341401         2.358127
 H         4.567977        -1.530513         2.005232
 H         3.123752        -1.572218        -0.842224
 H         2.130429        -2.026764         0.674113
