19
Iteration:  1554
 C         0.127886        -0.553711        -0.782492
 C         1.479396        -0.079242        -0.276216
 C         2.451584         0.713494        -1.097512
 C         3.570264         0.889993         0.055393
 C         2.783025         1.003021         1.355103
 O         1.411717         0.878778         0.953212
 C         3.486632        -0.271267         1.002649
 O         4.894661        -0.816949         1.456585
 C         2.419383        -1.162768         0.387364
 H        -0.192334        -1.557935        -0.340634
 H        -0.723154         0.037939        -0.290073
 H         0.101894        -0.489266        -1.796776
 H         2.826896         0.265626        -2.130416
 H         1.962039         1.707177        -1.349701
 H         4.625609         1.324137        -0.161606
 H         2.851038         1.830320         2.083205
 H         4.601816        -1.770629         1.614458
 H         2.855108        -1.912180        -0.266425
 H         1.918074        -1.645541         1.276285
