19
Iteration:   745charge 0 multiplicity 1
 C         0.129256        -0.627654        -0.603301
 C         1.564323        -0.091328        -0.300129
 C         2.516314         0.794851        -1.108828
 C         3.670388         0.945452        -0.076675
 C         2.806479         0.984960         1.332920
 O         1.401075         0.884841         0.915244
 C         3.534324        -0.263526         0.941561
 O         4.665717        -0.877950         1.534552
 C         2.431743        -1.139758         0.352005
 H        -0.259059        -1.312099         0.200673
 H        -0.541901         0.153299        -0.692624
 H         0.104424        -1.145995        -1.628542
 H         2.822537         0.373513        -2.031885
 H         1.776518         1.713010        -1.231264
 H         4.536006         1.507171        -0.174111
 H         2.866395         1.852463         1.991665
 H         4.379070        -1.671259         1.993446
 H         2.928803        -1.900961        -0.343188
 H         2.029438        -1.663830         1.191069
