19
Iteration:  4816
 C         0.221773        -0.421329        -0.962037
 C         1.524136        -0.089670        -0.204626
 C         2.542483         0.832344        -0.975933
 C         3.472984         1.089053         0.188858
 C         2.727668         0.849868         1.390699
 O         1.384849         0.682633         1.023368
 C         3.504182        -0.349974         0.943120
 O         4.804151        -0.749130         1.338123
 C         2.448416        -1.272137         0.307218
 H        -0.572523        -0.392391        -0.159106
 H         0.050149         0.339093        -1.752801
 H         0.257990        -1.395996        -1.488708
 H         3.041597         0.362829        -1.823252
 H         1.852760         1.778457        -1.223887
 H         4.297371         1.746989         0.332596
 H         2.817096         1.306527         2.341338
 H         4.882745        -1.334810         2.168079
 H         2.818472        -1.902327        -0.527743
 H         1.773216        -1.857083         1.026056
