19
Iteration:   129charge 0 multiplicity 1
 C         0.173347        -0.374431        -0.706730
 C         1.524177        -0.058871        -0.185820
 C         2.470507         0.750578        -1.085053
 C         3.566078         0.924718        -0.072440
 C         2.786166         0.887063         1.195005
 O         1.423992         0.705248         0.973358
 C         3.546684        -0.348533         0.936509
 O         4.758896        -0.648788         1.551255
 C         2.405988        -1.299562         0.352602
 H        -0.518495        -0.267334         0.185263
 H        -0.155116         0.253328        -1.525531
 H         0.195001        -1.425106        -1.161517
 H         2.743941         0.071432        -2.020158
 H         2.093680         1.655970        -1.473279
 H         4.328077         1.593548        -0.237651
 H         3.015150         1.556926         2.055775
 H         4.514915        -1.076008         2.434767
 H         2.854681        -2.140198        -0.217602
 H         1.871012        -1.649890         1.280643
