19
Iteration:   403charge 0 multiplicity 1
 C         0.213528        -0.333042        -0.726930
 C         1.538662        -0.093476        -0.196850
 C         2.482914         0.585927        -1.108648
 C         3.515128         0.826375        -0.022848
 C         2.745017         0.837089         1.311182
 O         1.422941         0.890901         1.015238
 C         3.547072        -0.396383         0.835108
 O         4.741832        -0.547869         1.515875
 C         2.425401        -1.281929         0.324676
 H        -0.503442        -0.206094         0.065788
 H        -0.137367         0.378539        -1.629781
 H        -0.036253        -1.294725        -1.120539
 H         2.896282        -0.155287        -1.887386
 H         2.059913         1.488146        -1.424195
 H         4.495882         1.341083        -0.080942
 H         3.246429         1.294142         2.214445
 H         4.612006        -0.900194         2.452840
 H         2.698737        -2.061855        -0.397718
 H         1.960475        -1.851366         1.244100
