19
Iteration:  2256
 C         0.213556        -0.432493        -0.898761
 C         1.556360        -0.108420        -0.292088
 C         2.529495         0.806923        -1.057093
 C         3.540889         1.029565         0.080766
 C         2.684462         0.865854         1.455078
 O         1.365693         0.604857         1.070869
 C         3.490400        -0.268627         0.928699
 O         4.728387        -0.689317         1.432727
 C         2.517525        -1.197370         0.316558
 H         0.177863         0.005439        -1.868788
 H         0.308064        -1.581457        -1.023823
 H        -0.674584        -0.094378        -0.259805
 H         2.988305         0.158063        -1.855752
 H         2.069744         1.639262        -1.333194
 H         4.348697         1.656946         0.034447
 H         2.912008         1.463762         2.372027
 H         4.604356        -1.570477         1.750510
 H         3.066524        -1.846247        -0.351255
 H         1.839666        -1.577036         1.009273
