19
Iteration:   390charge 0 multiplicity 1
 C         0.074493        -0.311306        -0.773896
 C         1.495995        -0.102017        -0.185236
 C         2.541685         0.641431        -1.070277
 C         3.605781         0.792841        -0.028547
 C         2.858042         0.837568         1.312376
 O         1.417244         0.763407         0.991354
 C         3.465372        -0.395075         0.927529
 O         4.803953        -0.467536         1.508033
 C         2.365900        -1.298926         0.361184
 H        -0.594129        -0.012457         0.052304
 H        -0.015703         0.439186        -1.599097
 H        -0.048923        -1.418420        -1.087074
 H         2.826959        -0.073211        -1.991670
 H         2.190980         1.481459        -1.646295
 H         4.654156         1.248608        -0.363765
 H         2.950269         1.399347         2.224832
 H         4.712773        -0.735321         2.410405
 H         2.701889        -1.772264        -0.576068
 H         1.739106        -2.013721         0.998011
