19
Iteration:  2734charge 0 multiplicity 1
 C         0.186856        -0.550242        -0.870540
 C         1.567282        -0.022417        -0.270548
 C         2.504708         0.846052        -1.046313
 C         3.496870         0.976279         0.118002
 C         2.695870         0.868331         1.430931
 O         1.335246         0.718571         0.994586
 C         3.572778        -0.274000         0.982340
 O         4.772336        -0.796100         1.554703
 C         2.543685        -1.155097         0.161712
 H        -0.235558         0.094317        -1.690713
 H         0.157609        -1.642995        -1.418585
 H        -0.701131        -0.649598        -0.111623
 H         2.953735         0.399812        -1.942597
 H         2.030696         1.874115        -1.275972
 H         4.275256         1.745679         0.029145
 H         2.912722         1.598866         2.249448
 H         4.532038        -1.528436         2.137854
 H         3.005125        -1.730042        -0.616465
 H         2.074456        -1.940071         0.716411
