19
Iteration:  4085charge 0 multiplicity 1
 C         0.317285        -0.480558        -1.039396
 C         1.513801        -0.063705        -0.233827
 C         2.456394         1.047621        -0.909976
 C         3.501718         1.015938         0.138558
 C         2.630816         0.856377         1.549057
 O         1.323446         0.497616         1.145085
 C         3.552011        -0.286171         0.864137
 O         4.758171        -0.832640         1.323824
 C         2.562406        -1.157848         0.225646
 H        -0.128392         0.301603        -1.658976
 H         0.509150        -1.301271        -1.734700
 H        -0.485000        -0.664387        -0.402507
 H         2.803346         0.463526        -1.882728
 H         1.965763         1.955968        -1.106580
 H         4.502909         1.559926         0.186369
 H         2.853362         1.493450         2.440998
 H         4.559550        -0.994891         2.218516
 H         2.968896        -1.505329        -0.721966
 H         2.268107        -1.892247         0.958445
