19
Iteration:  1751
 C         0.033497        -0.430799        -0.675035
 C         1.492498        -0.076277        -0.171326
 C         2.597662         0.799579        -1.095769
 C         3.573332         0.935040        -0.009379
 C         2.779635         0.879341         1.290582
 O         1.368951         0.681979         1.046239
 C         3.509937        -0.340665         0.864524
 O         4.739728        -0.712242         1.584317
 C         2.515158        -1.244784         0.167856
 H        -0.507043        -1.297903        -0.167928
 H        -0.538896         0.480649        -0.689147
 H         0.020708        -0.710539        -1.740669
 H         2.997043         0.098499        -1.888623
 H         2.287994         1.687529        -1.535725
 H         4.564182         1.426189        -0.135457
 H         2.996362         1.511503         2.153060
 H         4.949112        -0.135697         2.409617
 H         2.986814        -1.529587        -0.739370
 H         2.021674        -2.063666         0.719490
