19
Iteration:   234
 C         0.157246        -0.241993        -0.761777
 C         1.535617        -0.143751        -0.214097
 C         2.461209         0.576921        -1.172877
 C         3.544133         0.818574        -0.093687
 C         2.752195         0.946254         1.216368
 O         1.340588         0.753775         1.074628
 C         3.600001        -0.283069         0.957468
 O         4.816990        -0.659473         1.608717
 C         2.468684        -1.271938         0.342727
 H        -0.500428        -1.054309        -0.390910
 H        -0.263797         0.675687        -0.494572
 H         0.164535        -0.479035        -1.821609
 H         2.696216        -0.160149        -1.918007
 H         1.869685         1.465436        -1.535261
 H         4.394618         1.472610        -0.355254
 H         3.083928         1.599385         2.075504
 H         4.622373        -0.786658         2.586191
 H         2.845462        -1.955107        -0.460963
 H         1.882224        -1.852995         1.021943
