19
Iteration:  2349
 C         0.236815        -0.625557        -0.844419
 C         1.576089        -0.081247        -0.227706
 C         2.460383         0.847969        -1.034492
 C         3.502837         1.031408         0.092986
 C         2.744588         0.877409         1.343478
 O         1.345556         0.816458         0.996378
 C         3.581758        -0.242408         0.874826
 O         4.640684        -0.823022         1.598206
 C         2.570235        -1.184473         0.271417
 H        -0.534052         0.115599        -0.655640
 H         0.313768        -0.648802        -1.885605
 H        -0.165433        -1.542971        -0.498692
 H         2.991121         0.337074        -1.788382
 H         1.791323         1.779647        -1.279879
 H         4.384148         1.629719        -0.032235
 H         2.890246         1.377459         2.314141
 H         4.689850        -1.748820         1.183649
 H         3.197270        -1.434562        -0.588882
 H         2.125764        -1.985027         0.940891
