19
Iteration:  4264
 C         0.244715        -0.503147        -0.887504
 C         1.540893        -0.031054        -0.257153
 C         2.584598         0.895290        -0.940412
 C         3.468883         1.066445         0.233274
 C         2.638652         0.805529         1.459640
 O         1.283821         0.617518         1.033102
 C         3.478273        -0.247648         0.914081
 O         4.770798        -0.794143         1.379230
 C         2.589459        -1.155185         0.164902
 H        -0.452097        -0.655348        -0.082684
 H        -0.255296         0.182338        -1.500728
 H         0.432963        -1.485654        -1.373001
 H         3.100240         0.384670        -1.765242
 H         2.079730         1.845668        -1.406090
 H         4.455092         1.717067         0.222041
 H         2.743712         1.392439         2.406103
 H         4.763241        -1.737613         1.502937
 H         3.093492        -1.588707        -0.688541
 H         2.153603        -1.944265         0.776365
