19
Iteration:  1410
 C         0.189269        -0.537811        -0.720802
 C         1.502595        -0.020046        -0.160663
 C         2.461295         0.709523        -1.088550
 C         3.586743         0.959878         0.024884
 C         2.802846         0.927579         1.364425
 O         1.384406         0.831109         0.981936
 C         3.531298        -0.294094         0.900594
 O         4.744660        -0.772734         1.394906
 C         2.434874        -1.195093         0.364053
 H        -0.701953        -0.587502        -0.147646
 H        -0.068162         0.126372        -1.597944
 H         0.395114        -1.508343        -1.133693
 H         2.795224         0.068509        -2.014928
 H         2.059200         1.611803        -1.444281
 H         4.443979         1.506991        -0.129406
 H         2.954417         1.593927         2.231130
 H         4.622178        -1.321196         2.150704
 H         2.809206        -1.922867        -0.367138
 H         2.059306        -1.847330         1.142104
