19
Iteration:  1128
 C         0.136934        -0.500925        -0.727736
 C         1.556467        -0.115376        -0.304096
 C         2.544766         0.746957        -1.125481
 C         3.511755         0.935028        -0.008574
 C         2.794535         0.925074         1.307284
 O         1.438840         0.809724         1.027368
 C         3.530038        -0.262555         0.916778
 O         4.656255        -0.796086         1.500671
 C         2.425218        -1.226730         0.451159
 H        -0.234101        -1.359123        -0.226614
 H        -0.464498         0.427277        -0.538625
 H         0.226423        -0.782269        -1.800105
 H         2.753287         0.061950        -1.967044
 H         2.165067         1.801204        -1.525091
 H         4.511324         1.435458        -0.077715
 H         3.142294         1.523472         2.129939
 H         5.433974        -0.307693         1.237824
 H         2.686521        -2.157933        -0.118547
 H         1.797184        -1.634359         1.255500
