19
Iteration:  3736
 C         0.190658        -0.478245        -0.770489
 C         1.600738        -0.132662        -0.283791
 C         2.494937         0.911012        -0.993871
 C         3.559274         1.076410         0.177071
 C         2.675327         0.835469         1.422527
 O         1.312139         0.678111         0.958609
 C         3.571074        -0.345649         0.820790
 O         4.670082        -0.805792         1.545373
 C         2.600616        -1.217321         0.096071
 H        -0.514210         0.375449        -0.432678
 H         0.314241        -0.597398        -1.956268
 H        -0.155478        -1.348412        -0.223810
 H         3.002392         0.614802        -1.944394
 H         1.946664         1.934880        -1.010409
 H         4.440620         1.861891         0.112881
 H         2.849892         1.467207         2.255350
 H         4.268689        -1.094542         2.430742
 H         3.016836        -1.707086        -0.833927
 H         2.340743        -2.013734         0.842797
