19
Iteration:  1613charge 0 multiplicity 1
 C         0.080905        -0.383008        -0.670523
 C         1.466769        -0.119829        -0.216803
 C         2.420675         0.733802        -1.136366
 C         3.497919         0.941457        -0.111512
 C         2.821228         0.966530         1.232426
 O         1.438869         0.715974         1.014064
 C         3.554956        -0.322814         0.956736
 O         4.756091        -0.831662         1.655874
 C         2.560769        -1.225185         0.257211
 H        -0.363821        -1.224500        -0.178797
 H        -0.349199         0.592255        -0.635538
 H         0.021708        -0.688552        -1.824247
 H         2.850854         0.377185        -2.020362
 H         2.029106         1.838577        -1.384112
 H         4.240530         1.705410        -0.347390
 H         3.172105         1.714912         1.930187
 H         4.741455        -0.512612         2.534037
 H         3.087831        -1.813522        -0.544196
 H         2.151497        -1.994597         0.948897
