19
Iteration:   834
 C         0.190117        -0.413887        -0.696916
 C         1.547795        -0.139004        -0.182228
 C         2.547177         0.740164        -1.133968
 C         3.570203         0.868799         0.006898
 C         2.749160         0.965913         1.295889
 O         1.369355         0.698352         0.992177
 C         3.541645        -0.304952         0.797602
 O         4.722761        -0.740286         1.451342
 C         2.399815        -1.176916         0.416729
 H        -0.444280        -0.442424         0.148514
 H        -0.043404         0.483961        -1.223411
 H         0.164606        -1.333622        -1.346187
 H         2.919623         0.222851        -1.948008
 H         1.933096         1.719748        -1.384725
 H         4.467014         1.601575        -0.132165
 H         3.081258         1.511297         2.164586
 H         4.598106        -0.858631         2.381300
 H         2.833483        -1.932297        -0.248839
 H         2.004739        -1.542845         1.363576
