19
Iteration:  4083
 C         0.308639        -0.467451        -1.036174
 C         1.534664        -0.071094        -0.229738
 C         2.443115         1.034732        -0.904475
 C         3.491754         1.012630         0.141023
 C         2.639263         0.865494         1.548490
 O         1.325657         0.489644         1.125381
 C         3.558086        -0.288968         0.870417
 O         4.757448        -0.827414         1.331311
 C         2.558928        -1.150187         0.207420
 H        -0.148648         0.353302        -1.672192
 H         0.456217        -1.290567        -1.791143
 H        -0.452684        -0.683387        -0.297835
 H         2.754416         0.452067        -1.849114
 H         1.976182         2.005425        -1.105800
 H         4.523425         1.576419         0.208091
 H         2.855043         1.438354         2.422671
 H         4.567728        -0.976338         2.272807
 H         3.017459        -1.568737        -0.735330
 H         2.244734        -1.888321         1.005698
