19
Iteration:  1570charge 0 multiplicity 1
 C         0.188320        -0.573911        -0.702805
 C         1.572061        -0.019344        -0.163619
 C         2.555081         0.775979        -1.098142
 C         3.564295         0.918722        -0.025808
 C         2.799778         0.953359         1.271887
 O         1.377208         0.851501         1.015027
 C         3.550236        -0.337169         0.878778
 O         4.690683        -0.740429         1.437561
 C         2.366840        -1.204119         0.426208
 H         0.149059        -1.605709        -0.429805
 H        -0.580423         0.048118        -0.312428
 H         0.146408        -0.604731        -1.892168
 H         2.854151         0.108999        -1.841221
 H         2.135058         1.699370        -1.574889
 H         4.422615         1.535925        -0.087991
 H         3.088681         1.455891         2.185155
 H         4.715419        -1.612049         1.810855
 H         2.616280        -1.964186        -0.357094
 H         1.747399        -1.743776         1.147255
