19
Iteration:  2360
 C         0.203732        -0.602902        -0.866860
 C         1.503644        -0.113478        -0.254156
 C         2.480858         0.820828        -1.077467
 C         3.517235         1.040212         0.081406
 C         2.698823         0.912231         1.431747
 O         1.354229         0.788745         0.991067
 C         3.507346        -0.284604         1.007214
 O         4.734009        -0.817590         1.514703
 C         2.614780        -1.120531         0.241559
 H        -0.532580         0.107932        -0.512344
 H         0.333352        -0.523855        -1.895767
 H         0.024363        -1.612813        -0.622324
 H         2.791320         0.323203        -1.964485
 H         2.224295         1.915542        -1.413307
 H         4.375944         1.670493        -0.009816
 H         2.966458         1.513061         2.326856
 H         4.557300        -1.778192         1.790653
 H         2.955940        -1.821104        -0.541015
 H         2.111697        -1.902732         0.919789
