19
Iteration:  1460charge 0 multiplicity 1
 C         0.203954        -0.455306        -0.651610
 C         1.589170        -0.140544        -0.175770
 C         2.417830         0.824447        -1.062524
 C         3.552553         0.949896        -0.082199
 C         2.774700         0.918699         1.264489
 O         1.425486         0.767587         0.914414
 C         3.539058        -0.295546         0.932537
 O         4.651157        -0.848350         1.515301
 C         2.524370        -1.195125         0.309323
 H        -0.446138        -0.201031         0.232067
 H        -0.260234         0.200102        -1.355809
 H        -0.038679        -1.543681        -1.085324
 H         2.646081         0.443659        -2.000748
 H         1.701294         1.714654        -1.238851
 H         4.519155         1.499796        -0.072717
 H         2.874777         1.480310         2.222247
 H         4.814655        -0.533210         2.441022
 H         3.102476        -1.759699        -0.472236
 H         2.182463        -2.046220         0.963742
