19
Iteration:  1452
 C         0.166986        -0.464123        -0.663901
 C         1.592561        -0.147774        -0.188136
 C         2.438085         0.802895        -1.096458
 C         3.549770         1.027220        -0.030326
 C         2.807718         0.964447         1.295964
 O         1.458090         0.729661         0.970073
 C         3.501430        -0.237162         0.909074
 O         4.623839        -0.878047         1.484787
 C         2.527053        -1.213280         0.299572
 H        -0.441312        -0.419209         0.179092
 H        -0.204334         0.084573        -1.501517
 H         0.203513        -1.571529        -0.835614
 H         2.844573         0.216065        -2.011107
 H         1.843619         1.626582        -1.407216
 H         4.440513         1.533601        -0.069921
 H         3.000210         1.637252         2.149553
 H         4.747907        -0.631631         2.410754
 H         2.896134        -1.853413        -0.527759
 H         1.896011        -1.792097         0.948775
