19
Iteration:  2202charge 0 multiplicity 1
 C         0.221105        -0.567376        -0.800597
 C         1.558412        -0.070444        -0.227743
 C         2.441775         0.873704        -1.033076
 C         3.539163         0.988592         0.066910
 C         2.752216         0.908010         1.419863
 O         1.401692         0.700111         1.003583
 C         3.504388        -0.293902         0.916337
 O         4.634556        -0.863146         1.518816
 C         2.570412        -1.163987         0.201698
 H         0.255068        -0.662900        -1.829260
 H        -0.134021        -1.551510        -0.408854
 H        -0.533153         0.171526        -0.558934
 H         2.718392         0.472188        -2.038546
 H         2.015829         1.873028        -1.307292
 H         4.438965         1.534528        -0.079438
 H         2.786514         1.635269         2.267034
 H         5.045582        -0.225024         2.070848
 H         3.185669        -1.462401        -0.671720
 H         2.127002        -2.035267         0.609381
