19
Iteration:    89charge 0 multiplicity 1
 C         0.156555        -0.317552        -0.733024
 C         1.517897        -0.163163        -0.176815
 C         2.469681         0.578129        -1.043278
 C         3.553777         0.921519        -0.023009
 C         2.811964         0.930603         1.267242
 O         1.450048         0.807174         0.983658
 C         3.477303        -0.355151         0.906004
 O         4.712092        -0.587166         1.504455
 C         2.497560        -1.380493         0.328520
 H        -0.527138        -0.804819        -0.109768
 H        -0.253192         0.718752        -0.910734
 H         0.195312        -0.737690        -1.698196
 H         2.767490        -0.014095        -1.855646
 H         1.957427         1.473556        -1.504035
 H         4.427529         1.484764        -0.226885
 H         3.043069         1.496996         2.232570
 H         4.763177        -0.620783         2.445954
 H         2.802145        -1.841774        -0.579451
 H         1.955881        -1.995884         1.015162
