19
Iteration:  2613
 C         0.203981        -0.640217        -0.873818
 C         1.504498        -0.063561        -0.256339
 C         2.563221         0.900348        -1.074083
 C         3.574644         1.100375         0.120154
 C         2.736495         0.915303         1.345348
 O         1.352655         0.687448         1.050235
 C         3.615156        -0.236036         0.854576
 O         4.602941        -0.965957         1.566657
 C         2.549457        -1.076248         0.229165
 H        -0.642294        -0.182009        -0.442564
 H        -0.028499        -0.888509        -1.980413
 H         0.240858        -1.787680        -0.665144
 H         2.915728         0.399485        -1.896377
 H         2.027564         1.859768        -1.353887
 H         4.340112         1.880108         0.220226
 H         2.924536         1.491925         2.237090
 H         4.862460        -0.469607         2.318266
 H         2.733261        -1.845271        -0.517257
 H         1.906000        -1.561323         0.997383
