19
Iteration:  4430charge 0 multiplicity 1
 C         0.181636        -0.405088        -0.879355
 C         1.539822        -0.103280        -0.196962
 C         2.446444         0.787468        -1.034000
 C         3.510119         1.085230         0.054281
 C         2.750243         0.862514         1.297114
 O         1.447571         0.653222         1.029501
 C         3.554664        -0.333625         0.844239
 O         4.693016        -0.762115         1.635343
 C         2.577848        -1.231712         0.252640
 H         0.295472        -0.120784        -1.943773
 H        -0.165742        -1.467677        -0.939564
 H        -0.652436         0.202698        -0.669863
 H         2.847745         0.301737        -1.875118
 H         1.783180         1.782392        -1.214676
 H         4.451371         1.584183        -0.074475
 H         2.929729         1.458388         2.228452
 H         4.343269        -1.043490         2.469126
 H         2.797628        -1.824793        -0.672778
 H         1.937477        -1.826667         0.932789
