19
Iteration:  3819charge 0 multiplicity 1
 C         0.310712        -0.469473        -0.984708
 C         1.621634        -0.137496        -0.259276
 C         2.486494         0.923033        -0.932995
 C         3.497144         1.039839         0.204384
 C         2.616963         0.872653         1.477262
 O         1.311296         0.597191         1.088455
 C         3.524375        -0.268961         0.898350
 O         4.791494        -0.874875         1.312518
 C         2.501366        -1.156664         0.289419
 H        -0.169624         0.409114        -1.385791
 H         0.381433        -0.947212        -1.960990
 H        -0.422581        -1.100034        -0.349502
 H         2.878002         0.603865        -1.976822
 H         2.003384         1.908480        -1.127526
 H         4.309699         1.859903         0.087790
 H         2.671908         1.506205         2.294350
 H         4.817496        -0.726518         2.231560
 H         2.880758        -1.723981        -0.567937
 H         1.842082        -1.749795         0.959500
