19
Iteration:  2642
 C         0.370189        -0.534488        -0.846830
 C         1.593180        -0.118530        -0.179849
 C         2.488128         0.903501        -1.036017
 C         3.509881         1.019820         0.093507
 C         2.723480         0.929383         1.367061
 O         1.330590         0.741213         0.956282
 C         3.461655        -0.280485         0.920942
 O         4.589073        -0.889492         1.461941
 C         2.605302        -1.204609         0.292408
 H        -0.557212         0.056408        -0.463128
 H         0.352573        -0.495135        -1.921223
 H         0.114998        -1.582838        -0.453027
 H         2.752641         0.443030        -2.039095
 H         1.836821         1.842658        -1.177710
 H         4.581932         1.553983        -0.041113
 H         2.866416         1.464637         2.308086
 H         4.861937        -0.553582         2.377598
 H         3.017764        -1.828151        -0.522466
 H         1.970214        -1.862418         0.830666
