19
Iteration:  1365
 C         0.098127        -0.336552        -0.706319
 C         1.492758        -0.092649        -0.180152
 C         2.501071         0.709237        -1.105680
 C         3.546074         0.872187        -0.064992
 C         2.741024         0.891395         1.315096
 O         1.430111         0.678864         0.973168
 C         3.589720        -0.285020         0.858787
 O         4.767109        -0.666325         1.524069
 C         2.493997        -1.207680         0.385823
 H        -0.440146        -0.967366        -0.045633
 H        -0.521743         0.550328        -0.758826
 H         0.084299        -0.883544        -1.700122
 H         2.937928         0.015340        -1.974369
 H         2.233788         1.623170        -1.578128
 H         4.407578         1.551027        -0.231643
 H         3.039659         1.479212         2.204610
 H         4.397539        -1.141990         2.246530
 H         2.686590        -2.006376        -0.372729
 H         2.011118        -1.783568         1.149469
