19
Iteration:  1390charge 0 multiplicity 1
 C         0.212235        -0.427514        -0.740330
 C         1.565268        -0.228811        -0.247843
 C         2.436265         0.769361        -1.007982
 C         3.589659         0.887864         0.006618
 C         2.756807         1.028362         1.233057
 O         1.399919         0.801277         0.980011
 C         3.481309        -0.335083         1.000222
 O         4.769718        -0.669667         1.424029
 C         2.451352        -1.307525         0.395484
 H        -0.449993        -0.543144         0.186689
 H        -0.304554         0.532924        -1.254725
 H         0.075312        -1.202889        -1.410010
 H         2.758922         0.581856        -2.055635
 H         1.905626         1.698901        -1.094432
 H         4.559369         1.215714        -0.123811
 H         3.194893         1.700610         1.969637
 H         4.635731        -1.494182         1.913461
 H         2.666190        -1.991464        -0.441629
 H         1.873978        -1.994778         1.100478
