19
Iteration:  3109charge 0 multiplicity 1
 C         0.251383        -0.314154        -0.935470
 C         1.530687        -0.105912        -0.177805
 C         2.520598         0.792949        -1.047322
 C         3.474023         0.953627         0.108459
 C         2.699132         0.765250         1.390561
 O         1.340085         0.636473         1.042145
 C         3.549750        -0.313605         0.922619
 O         4.739429        -0.629127         1.541615
 C         2.543960        -1.278962         0.184250
 H        -0.456520         0.543376        -0.539214
 H         0.366614        -0.324138        -1.992669
 H        -0.435452        -1.208082        -0.719288
 H         2.981879         0.166933        -1.942729
 H         2.034086         1.612171        -1.492963
 H         4.401858         1.664034         0.092645
 H         3.022063         1.314614         2.263666
 H         4.563114        -0.804591         2.439826
 H         2.916560        -1.800951        -0.672431
 H         2.038611        -2.028335         0.811330
