19
Iteration:   230
 C         0.140325        -0.283765        -0.767240
 C         1.529796        -0.175117        -0.188061
 C         2.472329         0.591121        -1.134811
 C         3.545324         0.832099        -0.087207
 C         2.756322         0.997183         1.225076
 O         1.372095         0.765166         1.041398
 C         3.581857        -0.311959         0.934892
 O         4.810869        -0.654286         1.599509
 C         2.462364        -1.296699         0.343387
 H        -0.481663        -1.010851        -0.293243
 H        -0.380829         0.759583        -0.608294
 H         0.167484        -0.474089        -1.826244
 H         2.739120         0.021445        -2.057871
 H         1.896046         1.526707        -1.471756
 H         4.550240         1.455757        -0.229912
 H         3.037632         1.515062         2.090603
 H         4.545980        -0.776006         2.501806
 H         2.746386        -1.913352        -0.469772
 H         1.938094        -1.868996         1.126807
