19
Iteration:   468
 C         0.242993        -0.617156        -0.650776
 C         1.527201        -0.032360        -0.105956
 C         2.537619         0.720669        -1.048400
 C         3.613577         0.980136        -0.084198
 C         2.823833         0.998382         1.209957
 O         1.411110         0.935510         0.882162
 C         3.488039        -0.340560         0.868365
 O         4.648499        -0.847902         1.513138
 C         2.400701        -1.159231         0.390530
 H         0.096104        -1.545190        -0.131328
 H        -0.723066         0.017264        -0.365072
 H         0.377573        -0.936671        -1.657829
 H         2.875062        -0.033649        -1.896132
 H         2.019547         1.542923        -1.472389
 H         4.526282         1.417837        -0.171871
 H         3.138277         1.370900         2.219980
 H         4.266063        -1.130572         2.385502
 H         2.517333        -1.726651        -0.528449
 H         1.887849        -1.719181         1.257752
