19
Iteration:  4849
 C         0.209415        -0.333127        -0.908558
 C         1.493553        -0.068603        -0.161834
 C         2.464581         0.912350        -0.990762
 C         3.567627         0.914258        -0.014618
 C         2.770355         0.802793         1.262140
 O         1.355343         0.604975         1.143783
 C         3.526017        -0.390797         0.887513
 O         4.688481        -0.676269         1.556846
 C         2.625988        -1.276559         0.184459
 H        -0.569475        -0.813710        -0.229662
 H        -0.298261         0.593913        -1.251088
 H         0.362731        -1.012161        -1.748482
 H         2.645361         0.629864        -1.998473
 H         2.055158         2.003239        -1.158851
 H         4.403525         1.505463         0.113238
 H         2.987547         1.351068         2.183387
 H         4.356094        -0.743479         2.468455
 H         2.947648        -1.905566        -0.668152
 H         2.060361        -1.953652         0.910429
