19
Iteration:  1830charge 0 multiplicity 1
 C         0.308306        -0.544510        -0.814230
 C         1.521539        -0.077295        -0.104473
 C         2.490005         0.795145        -1.087716
 C         3.510271         0.964567         0.025320
 C         2.767828         0.938657         1.387206
 O         1.364374         0.842280         1.086762
 C         3.439750        -0.308383         0.914962
 O         4.722883        -0.763197         1.418686
 C         2.477792        -1.196793         0.302729
 H        -0.178632        -1.381775        -0.274577
 H        -0.560937         0.048039        -1.061862
 H         0.712977        -0.957362        -1.849656
 H         2.770561         0.241008        -1.935837
 H         1.940511         1.766439        -1.298394
 H         4.502350         1.500355        -0.107489
 H         3.004920         1.412234         2.329248
 H         4.791966        -1.757604         1.215162
 H         2.869070        -1.727544        -0.589212
 H         2.101080        -2.007758         0.936775
