19
Iteration:   927charge 0 multiplicity 1
 C         0.108513        -0.339924        -0.739380
 C         1.526354        -0.120269        -0.214899
 C         2.461398         0.631473        -1.068638
 C         3.591680         0.912400        -0.035405
 C         2.754759         0.883270         1.277809
 O         1.409735         0.769357         0.996479
 C         3.569570        -0.275780         0.886646
 O         4.782027        -0.673439         1.548571
 C         2.455158        -1.241407         0.351206
 H        -0.337412        -1.251181        -0.242658
 H        -0.569682         0.473878        -0.585939
 H         0.134122        -0.543017        -1.798102
 H         2.840091        -0.165690        -1.855259
 H         1.977565         1.435214        -1.537690
 H         4.482953         1.499490        -0.402507
 H         3.094307         1.511855         2.094835
 H         4.614419        -1.082001         2.451777
 H         2.677059        -1.776459        -0.582482
 H         1.954262        -1.783994         1.177110
