19
Iteration:   925
 C         0.109330        -0.360108        -0.744950
 C         1.514084        -0.125220        -0.211091
 C         2.470895         0.627149        -1.067288
 C         3.597745         0.950344        -0.047812
 C         2.763169         0.882873         1.278297
 O         1.415322         0.772566         0.987953
 C         3.565968        -0.284862         0.885204
 O         4.781280        -0.682025         1.562799
 C         2.453620        -1.238212         0.346653
 H        -0.356108        -1.215163        -0.262116
 H        -0.595644         0.492700        -0.548478
 H         0.085843        -0.513006        -1.754063
 H         2.815303        -0.114894        -1.869169
 H         1.935399         1.456102        -1.542690
 H         4.422931         1.510091        -0.398090
 H         3.144389         1.486194         2.129519
 H         4.615101        -1.126124         2.405138
 H         2.698649        -1.834992        -0.507106
 H         1.937078        -1.763691         1.193998
