19
Iteration:  1331charge 0 multiplicity 1
 C         0.156356        -0.460381        -0.654522
 C         1.535736        -0.138479        -0.119323
 C         2.506916         0.724495        -1.098074
 C         3.546749         0.976496        -0.073524
 C         2.819326         0.999633         1.239652
 O         1.470027         0.765897         1.026721
 C         3.501829        -0.251050         0.880141
 O         4.595788        -0.824950         1.524863
 C         2.491053        -1.280245         0.303627
 H        -0.157242        -1.437084        -0.361189
 H        -0.519795         0.287570        -0.406396
 H         0.280631        -0.459324        -1.804675
 H         2.959494         0.047987        -1.931257
 H         2.097880         1.653942        -1.500202
 H         4.451670         1.644987        -0.333083
 H         3.110552         1.593477         2.093377
 H         4.701858        -0.339178         2.350745
 H         2.729659        -1.617306        -0.709448
 H         2.133387        -2.035393         0.971557
