19
Iteration:  1085
 C         0.199323        -0.318507        -0.777483
 C         1.564948        -0.180619        -0.138946
 C         2.460385         0.603302        -1.096497
 C         3.526674         0.898962        -0.089006
 C         2.779363         0.997167         1.284283
 O         1.410791         0.780955         1.072941
 C         3.502366        -0.316717         0.896443
 O         4.650302        -0.700116         1.587944
 C         2.487095        -1.315707         0.340084
 H        -0.359576        -1.103281        -0.290340
 H        -0.359400         0.645641        -0.554187
 H         0.342797        -0.474396        -1.865476
 H         2.944392         0.164051        -1.919644
 H         1.868909         1.560207        -1.439759
 H         4.418568         1.529914        -0.292706
 H         3.058176         1.767468         2.019475
 H         5.383605        -0.620823         0.934378
 H         2.974343        -2.008086        -0.377262
 H         2.041800        -1.927519         1.124214
