19
Iteration:  2082
 C         0.213942        -0.578539        -0.780721
 C         1.573224        -0.114107        -0.223844
 C         2.553295         0.843402        -0.986662
 C         3.502056         1.111125         0.131094
 C         2.719530         0.974926         1.394845
 O         1.386442         0.676785         1.002127
 C         3.581579        -0.247545         0.872356
 O         4.677189        -0.843198         1.397178
 C         2.521870        -1.189099         0.263677
 H         0.201497        -1.581794        -0.843037
 H        -0.607132        -0.212774        -0.168071
 H         0.102504        -0.141058        -1.765589
 H         2.767171         0.489245        -1.967669
 H         1.873849         1.730196        -1.257996
 H         4.400619         1.838091         0.002720
 H         2.759318         1.569873         2.279259
 H         4.300629        -1.637273         1.898494
 H         2.822203        -1.888978        -0.547975
 H         1.920769        -1.858737         0.859441
