19
Iteration:  1834
 C         0.335088        -0.550379        -0.807312
 C         1.551076        -0.036004        -0.104200
 C         2.470845         0.802747        -1.076283
 C         3.499584         0.957214         0.024401
 C         2.738941         0.947362         1.377508
 O         1.347880         0.842128         1.056260
 C         3.479152        -0.302099         0.913713
 O         4.734554        -0.770235         1.403790
 C         2.467655        -1.250446         0.310244
 H        -0.285084        -1.212743        -0.198485
 H        -0.559975         0.129067        -1.046627
 H         0.686860        -0.947616        -1.723191
 H         2.790590         0.272412        -1.999427
 H         1.894987         1.758294        -1.210733
 H         4.396321         1.444861         0.051592
 H         3.010092         1.385385         2.340369
 H         4.805311        -1.707660         1.364257
 H         2.919456        -1.769497        -0.585691
 H         2.051925        -2.066681         0.922617
