19
Iteration:  4016
 C         0.210858        -0.438644        -0.834769
 C         1.515319        -0.102836        -0.203207
 C         2.561826         1.003955        -1.039880
 C         3.541322         1.030697         0.101118
 C         2.706785         0.817231         1.403876
 O         1.357957         0.516738         1.079176
 C         3.560722        -0.296265         0.883048
 O         4.690893        -0.725869         1.589276
 C         2.547227        -1.210027         0.013486
 H        -0.600933         0.023332        -0.264438
 H         0.051245        -0.300933        -1.914487
 H        -0.109219        -1.460869        -0.572962
 H         2.873756         0.495715        -1.934560
 H         2.039640         1.996826        -1.149569
 H         4.320944         1.711797         0.199924
 H         2.873595         1.398006         2.303032
 H         4.446888        -1.468531         2.169139
 H         3.035062        -1.313837        -0.975952
 H         2.100534        -2.143705         0.492922
