19
Iteration:  4497charge 0 multiplicity 1
 C         0.229361        -0.525863        -0.872170
 C         1.590980        -0.084885        -0.232689
 C         2.558902         0.790053        -1.014003
 C         3.501933         1.073755         0.113209
 C         2.703878         0.937087         1.403170
 O         1.368724         0.770964         1.017091
 C         3.558198        -0.286759         0.893821
 O         4.678411        -0.867768         1.454148
 C         2.497429        -1.205193         0.241040
 H         0.176262        -0.123453        -1.893849
 H         0.173835        -1.645109        -0.920742
 H        -0.551826         0.012021        -0.292875
 H         2.942510         0.149092        -1.831956
 H         1.893332         1.674318        -1.442195
 H         4.425379         1.732864         0.077177
 H         2.737723         1.531357         2.293675
 H         4.488449        -1.081247         2.421473
 H         2.880994        -2.018633        -0.424893
 H         1.932290        -1.814295         1.010741
