19
Iteration:  3437charge 0 multiplicity 1
 C         0.231851        -0.583069        -0.865922
 C         1.603158        -0.041292        -0.249797
 C         2.546829         0.958533        -1.014282
 C         3.537855         1.012586         0.156959
 C         2.650833         0.914948         1.395842
 O         1.335115         0.626992         0.995876
 C         3.547970        -0.250120         0.930805
 O         4.664642        -0.934348         1.409729
 C         2.533517        -1.134106         0.247952
 H        -0.103946         0.254889        -1.500386
 H         0.434968        -1.579995        -1.202497
 H        -0.597416        -0.682106        -0.041649
 H         3.047193         0.582281        -2.068592
 H         2.125660         1.921775        -1.345720
 H         4.285974         1.931295         0.495779
 H         2.921657         1.551539         2.243848
 H         4.743632        -0.760353         2.314188
 H         3.028004        -1.749389        -0.541235
 H         1.830256        -1.847253         0.860310
