19
Iteration:  3075charge 0 multiplicity 1
 C         0.175494        -0.408191        -0.840161
 C         1.556456        -0.164154        -0.264362
 C         2.529742         0.841515        -1.025867
 C         3.575444         0.963629         0.082542
 C         2.656911         0.868893         1.349166
 O         1.340996         0.598120         0.974064
 C         3.569192        -0.295221         0.949805
 O         4.704793        -0.694054         1.584859
 C         2.562696        -1.214936         0.184127
 H        -0.378881         0.589471        -0.426189
 H         0.066174        -0.161884        -1.905781
 H        -0.300030        -1.352507        -0.499807
 H         3.017485         0.471264        -2.042153
 H         2.143855         1.823101        -1.133929
 H         4.417713         1.780953         0.183620
 H         2.892834         1.537193         2.139164
 H         4.423407        -1.390637         2.183725
 H         3.031587        -1.755357        -0.635526
 H         1.981909        -1.867534         0.898976
