19
Iteration:  1183
 C         0.099537        -0.535502        -0.704099
 C         1.498489        -0.064957        -0.188137
 C         2.470766         0.717794        -1.112425
 C         3.548121         0.998368        -0.052251
 C         2.865926         0.960439         1.297826
 O         1.454908         0.792795         1.040564
 C         3.563162        -0.311931         0.961480
 O         4.647747        -0.794857         1.687703
 C         2.442561        -1.187426         0.176674
 H        -0.526526        -0.603296         0.152724
 H        -0.381905         0.152966        -1.502721
 H         0.380305        -1.404046        -1.275281
 H         2.716829         0.084446        -1.974657
 H         1.855618         1.636518        -1.542518
 H         4.556855         1.548036        -0.274498
 H         3.163253         1.574852         2.116271
 H         5.432865        -0.991060         1.082828
 H         2.727557        -1.596837        -0.826045
 H         2.105487        -2.041815         0.787392
