19
Iteration:   697
 C         0.136873        -0.450535        -0.801149
 C         1.534813        -0.093189        -0.220312
 C         2.530680         0.649133        -1.109355
 C         3.560733         0.907136        -0.058706
 C         2.826890         0.971369         1.282841
 O         1.462494         0.757654         1.046527
 C         3.553250        -0.241186         0.963609
 O         4.668641        -0.706761         1.470019
 C         2.389265        -1.213666         0.402801
 H        -0.288435        -1.427736        -0.447530
 H        -0.767906         0.268751        -0.480403
 H         0.063966        -0.426156        -1.865327
 H         2.851555        -0.210402        -1.858794
 H         2.194242         1.516876        -1.537996
 H         4.523671         1.532626        -0.255735
 H         3.214451         1.510996         2.155074
 H         4.544147        -1.012919         2.429496
 H         2.851270        -1.929135        -0.254643
 H         1.867687        -1.735034         1.258911
