19
Iteration:  1403charge 0 multiplicity 1
 C         0.207725        -0.502326        -0.766139
 C         1.560093        -0.095253        -0.170952
 C         2.458626         0.740547        -1.032223
 C         3.491047         0.872119         0.018226
 C         2.797955         1.004074         1.346270
 O         1.431187         0.848309         0.963292
 C         3.504655        -0.315661         0.894085
 O         4.758728        -0.737458         1.405676
 C         2.434041        -1.248062         0.370366
 H        -0.549249        -0.594185         0.114905
 H        -0.127584         0.293838        -1.518131
 H         0.253071        -1.511038        -1.166821
 H         2.811640         0.236213        -1.854370
 H         1.921854         1.717521        -1.272129
 H         4.420276         1.448254        -0.244735
 H         2.854229         1.606337         2.222966
 H         4.662628        -1.454274         2.070128
 H         2.941098        -1.856235        -0.394691
 H         1.867416        -1.872997         1.146434
