19
Iteration:   293
 C         0.189811        -0.546552        -0.645357
 C         1.572321        -0.038716        -0.194544
 C         2.468278         0.768361        -1.153453
 C         3.556531         0.797305        -0.026490
 C         2.775997         0.951365         1.286155
 O         1.465134         0.895637         0.861045
 C         3.546394        -0.335111         0.943092
 O         4.698955        -0.759349         1.530006
 C         2.402090        -1.195902         0.407571
 H         0.063288        -1.449779        -0.058141
 H        -0.698335         0.172265        -0.547747
 H         0.206757        -0.642791        -1.756557
 H         2.699783         0.313248        -2.181663
 H         2.000779         1.676597        -1.361510
 H         4.510375         1.416123        -0.099316
 H         3.004807         1.622189         2.047127
 H         4.494216        -1.191854         2.341443
 H         2.702062        -1.932077        -0.375117
 H         1.799037        -1.722581         1.252842
