19
Iteration:  4838
 C         0.243625        -0.346982        -0.921050
 C         1.538266        -0.055015        -0.212574
 C         2.445337         0.885850        -0.964466
 C         3.577530         0.855661         0.015326
 C         2.705575         0.843661         1.435928
 O         1.310683         0.586817         1.093267
 C         3.544588        -0.317172         0.841841
 O         4.763447        -0.686599         1.490310
 C         2.514466        -1.253553         0.224182
 H        -0.623615        -0.580612        -0.239932
 H         0.073307         0.559698        -1.539178
 H         0.433038        -1.127514        -1.671206
 H         2.678876         0.521538        -1.951558
 H         1.917875         1.935609        -0.879570
 H         4.503160         1.275216        -0.220084
 H         2.966799         1.505672         2.253765
 H         4.669503        -0.874383         2.404032
 H         2.988805        -1.874672        -0.567386
 H         1.912267        -1.854631         0.973257
