19
Iteration:  1927
 C         0.098131        -0.513105        -0.810753
 C         1.495474        -0.080693        -0.272243
 C         2.440762         0.952162        -1.003669
 C         3.514498         1.009196         0.057524
 C         2.795204         0.859048         1.356524
 O         1.420115         0.649115         1.063548
 C         3.535417        -0.288825         0.837109
 O         4.690715        -0.785038         1.619918
 C         2.615261        -1.228669         0.215495
 H        -0.632697        -0.409672        -0.080625
 H        -0.251157         0.052932        -1.632135
 H         0.207078        -1.580432        -1.183260
 H         2.866027         0.677067        -1.969329
 H         1.929280         1.909724        -0.975581
 H         4.402313         1.567067        -0.032184
 H         3.004027         1.554318         2.158125
 H         5.293065        -1.168978         0.886711
 H         2.951516        -1.834778        -0.614520
 H         2.057430        -1.859521         0.886485
