19
Iteration:  1842
 C         0.305298        -0.524464        -0.760902
 C         1.555637        -0.010906        -0.161735
 C         2.434477         0.824194        -0.998165
 C         3.507341         0.943102         0.067330
 C         2.699110         0.945230         1.355659
 O         1.329568         0.803064         0.982226
 C         3.565488        -0.325636         0.891206
 O         4.764570        -0.760454         1.385822
 C         2.467612        -1.309188         0.325443
 H        -0.252232        -1.122575        -0.059689
 H        -0.123162         0.458939        -1.090522
 H         0.566910        -1.213786        -1.693566
 H         2.735036         0.448170        -1.893589
 H         1.885829         1.817716        -1.274082
 H         4.397377         1.541368         0.123580
 H         2.946170         1.544229         2.218411
 H         4.660495        -1.680277         1.668609
 H         2.899670        -1.784778        -0.593579
 H         1.896505        -1.947802         1.007105
