19
Iteration:  3022
 C         0.299171        -0.597009        -0.937207
 C         1.544910        -0.093959        -0.149572
 C         2.493670         0.911591        -0.967299
 C         3.555093         0.983602         0.097659
 C         2.689775         0.929602         1.413504
 O         1.318943         0.786136         0.999198
 C         3.485369        -0.266177         0.914635
 O         4.661575        -0.885004         1.425364
 C         2.575325        -1.208104         0.253469
 H        -0.260947         0.208130        -1.566645
 H         0.727847        -1.347234        -1.561710
 H        -0.342315        -0.882786        -0.030350
 H         2.884776         0.602371        -2.072164
 H         1.922843         1.841217        -0.966491
 H         4.538651         1.587684         0.102984
 H         2.922723         1.541675         2.249577
 H         4.457309        -1.059334         2.357218
 H         3.006859        -1.507599        -0.651772
 H         2.267303        -2.073928         0.770876
