19
Iteration:   146charge 0 multiplicity 1
 C         0.190334        -0.513860        -0.699601
 C         1.599070        -0.218311        -0.205669
 C         2.483992         0.676627        -1.109642
 C         3.542111         0.985943        -0.014764
 C         2.801446         1.040284         1.340612
 O         1.428164         0.851432         0.978324
 C         3.534241        -0.265004         0.803640
 O         4.627838        -0.785502         1.486886
 C         2.498263        -1.207596         0.407181
 H        -0.502602        -0.311201         0.129280
 H        -0.019512         0.221282        -1.485732
 H        -0.009804        -1.541643        -1.030965
 H         2.904513         0.320285        -1.985997
 H         1.783803         1.577320        -1.274348
 H         4.644621         1.446553        -0.234572
 H         3.078795         1.565902         2.195869
 H         4.199947        -1.308730         2.241692
 H         2.713476        -1.869398        -0.472826
 H         2.060397        -1.882060         1.136378
