19
Iteration:   852
 C         0.141062        -0.555793        -0.683596
 C         1.512483        -0.045952        -0.184171
 C         2.512536         0.700985        -1.039320
 C         3.550552         1.031992        -0.005618
 C         2.830998         0.913971         1.295142
 O         1.449791         0.913401         0.948301
 C         3.511362        -0.288633         0.859172
 O         4.716582        -0.788080         1.500062
 C         2.438887        -1.260430         0.317705
 H        -0.455021        -1.059285         0.197371
 H        -0.559649         0.174642        -1.110905
 H         0.304809        -1.376478        -1.512445
 H         2.884894         0.037454        -1.916399
 H         2.078925         1.576251        -1.477333
 H         4.545195         1.463877        -0.139692
 H         2.864989         1.519677         2.218827
 H         4.514380        -1.365634         2.222125
 H         2.799637        -1.899394        -0.584464
 H         1.929730        -1.772381         1.141600
