19
Iteration:  2940charge 0 multiplicity 1
 C         0.083335        -0.394905        -0.892986
 C         1.562364        -0.099646        -0.296378
 C         2.527023         0.855589        -1.059555
 C         3.563753         0.945623         0.077742
 C         2.692222         0.886334         1.393408
 O         1.348205         0.589735         1.032378
 C         3.505246        -0.299920         0.988244
 O         4.812215        -0.710133         1.600787
 C         2.549863        -1.239280         0.166156
 H        -0.053562         0.384258        -1.579504
 H         0.021188        -1.444164        -1.352724
 H        -0.718381        -0.482347        -0.172879
 H         2.811142         0.491494        -1.996039
 H         2.036813         1.867041        -1.287563
 H         4.408151         1.771104         0.114479
 H         2.954050         1.599581         2.163067
 H         4.618225        -1.235995         2.342130
 H         3.219286        -1.650784        -0.695015
 H         1.873184        -1.979698         0.746185
