19
Iteration:   767charge 0 multiplicity 1
 C         0.179384        -0.480154        -0.652503
 C         1.525280        -0.022518        -0.206517
 C         2.536279         0.754974        -1.112775
 C         3.573300         0.900006        -0.052894
 C         2.849438         0.981019         1.248664
 O         1.424395         0.742876         1.003003
 C         3.470391        -0.321421         0.873000
 O         4.683645        -0.694262         1.509343
 C         2.411168        -1.264120         0.327634
 H        -0.352710        -0.725210         0.308580
 H        -0.352003         0.260077        -1.150184
 H         0.339748        -1.383674        -1.349120
 H         2.908333         0.110130        -1.861169
 H         2.218656         1.835962        -1.456926
 H         4.476094         1.467091        -0.054208
 H         3.014288         1.406369         2.243990
 H         4.291309        -1.273721         2.225831
 H         2.819822        -2.031181        -0.423248
 H         1.905963        -1.764929         1.144668
