19
Iteration:  3695charge 0 multiplicity 1
 C         0.333762        -0.523587        -0.984233
 C         1.565669        -0.055625        -0.279665
 C         2.521711         0.932733        -0.993673
 C         3.501494         1.044452         0.132434
 C         2.688061         0.832074         1.420396
 O         1.322441         0.654441         1.204257
 C         3.572875        -0.238376         0.902033
 O         4.713409        -0.871814         1.384052
 C         2.470047        -1.168220         0.241923
 H        -0.267599         0.108861        -1.635069
 H         0.594310        -1.309538        -1.586521
 H        -0.421002        -1.061302        -0.471814
 H         2.852662         0.587226        -1.920132
 H         1.803379         1.829695        -1.193990
 H         4.426177         1.598974         0.200106
 H         2.865000         1.580430         2.189519
 H         4.689661        -0.855195         2.313315
 H         2.774536        -1.863877        -0.563987
 H         1.806803        -1.777111         0.916959
