19
Iteration:  1156charge 0 multiplicity 1
 C         0.166311        -0.508091        -0.632113
 C         1.545341        -0.080642        -0.199699
 C         2.531245         0.752604        -1.069299
 C         3.579748         0.994477        -0.040365
 C         2.751581         0.978833         1.281462
 O         1.370299         0.826227         0.932304
 C         3.581768        -0.229822         0.880416
 O         4.580780        -0.914876         1.552321
 C         2.506157        -1.223294         0.353205
 H        -0.170114        -1.148312         0.241478
 H        -0.557581         0.228770        -0.867173
 H         0.464753        -1.148602        -1.522906
 H         2.686563         0.180218        -2.036253
 H         2.057997         1.668863        -1.301556
 H         4.458188         1.517009        -0.210960
 H         2.981842         1.706919         2.100948
 H         5.500180        -0.754938         1.195378
 H         2.795253        -1.914243        -0.473220
 H         2.150794        -1.879866         1.167041
