19
Iteration:   419
 C         0.150870        -0.420376        -0.698186
 C         1.502520        -0.117497        -0.132041
 C         2.527137         0.669789        -1.095405
 C         3.587777         0.970008        -0.064217
 C         2.813291         0.990382         1.248374
 O         1.397079         0.810853         0.948865
 C         3.562406        -0.322724         0.868928
 O         4.705446        -0.762639         1.515484
 C         2.445467        -1.277839         0.417405
 H        -0.689306        -0.493692         0.036161
 H        -0.091770         0.357578        -1.347477
 H         0.245986        -1.397514        -1.256310
 H         2.887556         0.071844        -1.896321
 H         2.029679         1.606375        -1.534978
 H         4.472561         1.622728        -0.247698
 H         2.969233         1.669235         2.044944
 H         4.289725        -1.114603         2.316104
 H         2.686505        -1.975227        -0.411118
 H         2.029836        -1.771656         1.253893
