19
Iteration:  3952
 C         0.268030        -0.459520        -1.011886
 C         1.532685        -0.008390        -0.241518
 C         2.514441         0.862638        -0.896873
 C         3.517826         1.030861         0.179493
 C         2.624295         0.842374         1.465565
 O         1.283525         0.629593         1.109527
 C         3.488074        -0.295230         0.969542
 O         4.831450        -0.761762         1.282555
 C         2.510363        -1.233361         0.205154
 H        -0.466460         0.197421        -0.533302
 H         0.455781        -0.591517        -2.087078
 H         0.115349        -1.419484        -0.572687
 H         3.128912         0.325607        -1.792002
 H         2.272409         1.882022        -1.267175
 H         4.401451         1.579265         0.107619
 H         2.668117         1.374546         2.460716
 H         4.745817        -1.085710         2.149504
 H         2.962949        -1.830738        -0.643587
 H         1.941892        -1.943830         0.797329
