19
Iteration:  3468charge 0 multiplicity 1
 C         0.244202        -0.492161        -0.856072
 C         1.548813        -0.092533        -0.195023
 C         2.423704         0.884650        -0.980857
 C         3.553255         1.043240         0.093342
 C         2.728833         0.867427         1.386981
 O         1.378496         0.652990         0.982579
 C         3.550710        -0.316483         0.860178
 O         4.644943        -0.770536         1.578791
 C         2.581049        -1.177526         0.148286
 H        -0.123620         0.411764        -1.428457
 H         0.453075        -1.186626        -1.605838
 H        -0.394226        -0.820774         0.036375
 H         2.884956         0.403886        -1.905351
 H         1.954057         1.877215        -1.185853
 H         4.540176         1.711639         0.054342
 H         3.107957         1.157623         2.369556
 H         4.177616        -1.455245         2.177711
 H         2.994081        -1.635608        -0.713821
 H         2.001556        -1.937201         0.667370
