19
Iteration:   985charge 0 multiplicity 1
 C         0.130157        -0.485855        -0.724827
 C         1.552411        -0.073183        -0.167721
 C         2.483799         0.761960        -1.102286
 C         3.535058         1.025727        -0.025198
 C         2.749972         0.899197         1.274970
 O         1.353941         0.775241         0.963537
 C         3.641707        -0.270500         0.859336
 O         4.761572        -0.850608         1.501517
 C         2.476755        -1.172858         0.406103
 H        -0.643758        -0.664906         0.002636
 H        -0.085640         0.260279        -1.471137
 H         0.354239        -1.525339        -1.229200
 H         2.768300         0.170487        -1.977753
 H         2.018932         1.723270        -1.447289
 H         4.308382         1.722286        -0.179961
 H         3.122723         1.475629         2.105129
 H         4.432833        -1.211626         2.314036
 H         2.511182        -2.124630        -0.191222
 H         2.070329        -1.585509         1.312485
