19
Iteration:  1737
 C         0.173805        -0.443294        -0.738046
 C         1.481809        -0.040356        -0.181168
 C         2.518544         0.780835        -1.158965
 C         3.556966         0.953130         0.015406
 C         2.760022         0.854911         1.341474
 O         1.377740         0.691312         1.079299
 C         3.612751        -0.309699         0.825485
 O         4.736748        -0.741215         1.539952
 C         2.470079        -1.187735         0.226019
 H        -0.331419        -1.038210         0.092767
 H        -0.491116         0.484891        -0.931005
 H         0.250536        -1.038249        -1.599248
 H         2.802498        -0.046273        -1.955602
 H         2.207124         1.705053        -1.636092
 H         4.308277         1.658041         0.025061
 H         3.002918         1.430942         2.227622
 H         4.369230        -0.674789         2.405550
 H         2.636691        -1.900159        -0.592941
 H         2.069970        -1.831574         1.020093
