19
Iteration:  1776charge 0 multiplicity 1
 C         0.176987        -0.376556        -0.655859
 C         1.628052        -0.172764        -0.225930
 C         2.431866         0.806835        -1.051505
 C         3.526857         0.921702        -0.002460
 C         2.757405         0.909805         1.344269
 O         1.404787         0.719142         0.894999
 C         3.507308        -0.310890         0.841794
 O         4.639598        -0.799030         1.607734
 C         2.583490        -1.268248         0.251700
 H        -0.204560        -1.320034        -0.335391
 H        -0.294051         0.467639        -0.179774
 H        -0.252033        -0.324816        -1.745712
 H         2.626112         0.390929        -1.971540
 H         1.817855         1.787002        -1.186164
 H         4.420040         1.651304        -0.061271
 H         2.891666         1.550882         2.221119
 H         5.356502        -0.096287         1.703262
 H         3.110770        -1.842941        -0.555054
 H         2.012487        -1.871357         0.969026
