19
Iteration:  3083
 C         0.152408        -0.301864        -0.861534
 C         1.569664        -0.191825        -0.245846
 C         2.515388         0.792864        -0.968454
 C         3.581703         0.975253         0.127309
 C         2.688810         0.917256         1.360610
 O         1.352859         0.621751         0.935733
 C         3.537163        -0.262878         0.949446
 O         4.693338        -0.659137         1.569052
 C         2.601968        -1.332135         0.156560
 H        -0.477076         0.390968        -0.373943
 H         0.049300        -0.305978        -1.979603
 H        -0.336468        -1.199358        -0.650929
 H         2.843530         0.493937        -1.886160
 H         1.838555         1.658203        -1.144585
 H         4.450004         1.537471         0.022201
 H         2.908793         1.429631         2.295004
 H         4.470067        -1.308617         2.206662
 H         3.154049        -1.875682        -0.694845
 H         2.136557        -2.137053         0.840498
