19
Iteration:  3434
 C         0.248568        -0.582882        -0.845762
 C         1.617422        -0.020944        -0.252558
 C         2.553855         0.942082        -0.999807
 C         3.530609         1.032312         0.174417
 C         2.664185         0.876665         1.377801
 O         1.330558         0.639674         0.977579
 C         3.538521        -0.249654         0.921067
 O         4.663309        -0.931691         1.398448
 C         2.521444        -1.134583         0.260969
 H        -0.123770         0.241910        -1.549487
 H         0.393938        -1.549269        -1.227813
 H        -0.641963        -0.697937        -0.136430
 H         3.028622         0.540928        -1.901475
 H         2.018850         1.876547        -1.384542
 H         4.268816         1.825186         0.405080
 H         2.819002         1.448165         2.334542
 H         4.885110        -0.700358         2.368903
 H         2.982603        -1.686008        -0.504019
 H         1.909082        -1.747352         0.866828
