19
Iteration:  1642
 C         0.121215        -0.385455        -0.687880
 C         1.546695        -0.139612        -0.216843
 C         2.479699         0.745098        -1.043467
 C         3.615746         0.943802        -0.054536
 C         2.769111         0.920064         1.305080
 O         1.392443         0.688690         0.993361
 C         3.524984        -0.322116         0.836076
 O         4.624769        -0.762938         1.570908
 C         2.529258        -1.236947         0.274321
 H        -0.430883        -0.514343         0.305450
 H        -0.119544         0.599373        -1.084507
 H        -0.012974        -1.206555        -1.366298
 H         2.932240         0.273382        -1.953780
 H         2.121192         1.756435        -1.347703
 H         4.410076         1.583422        -0.235657
 H         3.077333         1.411652         2.232524
 H         5.173909         0.031321         1.755999
 H         2.929556        -1.912855        -0.451357
 H         2.136194        -1.897192         1.090647
