19
Iteration:  1538charge 0 multiplicity 1
 C         0.092946        -0.458567        -0.754598
 C         1.516794        -0.163094        -0.143758
 C         2.485651         0.708052        -1.017966
 C         3.560677         0.927593        -0.012811
 C         2.742479         1.075120         1.281781
 O         1.364821         0.805793         0.895914
 C         3.612561        -0.280936         0.983392
 O         4.787719        -0.811137         1.427225
 C         2.494960        -1.225280         0.460807
 H        -0.336377        -1.421949        -0.546943
 H        -0.612833         0.315863        -0.507869
 H         0.137538        -0.413913        -1.950461
 H         2.867243         0.233057        -1.910778
 H         2.104981         1.697138        -1.254096
 H         4.386135         1.567264        -0.175174
 H         2.994842         1.708047         2.124702
 H         4.694910        -1.758585         1.794468
 H         2.874567        -1.720838        -0.478035
 H         1.918878        -1.866943         1.100142
