19
Iteration:  1017
 C         0.195471        -0.589979        -0.604640
 C         1.551756        -0.077619        -0.212444
 C         2.460536         0.749993        -1.053940
 C         3.543541         0.919650        -0.038320
 C         2.830584         1.034042         1.319503
 O         1.467254         0.794156         0.984037
 C         3.521071        -0.231274         0.976794
 O         4.569106        -0.772175         1.506216
 C         2.532528        -1.161115         0.226715
 H        -0.617965        -0.668718         0.081754
 H        -0.232237        -0.136406        -1.468956
 H         0.476139        -1.597941        -1.207360
 H         2.762203         0.149212        -2.021843
 H         2.092540         1.760986        -1.370685
 H         4.512322         1.195739        -0.222544
 H         3.130805         1.701572         2.140808
 H         4.386916        -1.764936         1.634833
 H         2.812194        -1.668018        -0.794408
 H         2.008981        -1.790716         0.954464
