19
Iteration:   880charge 0 multiplicity 1
 C         0.233899        -0.611271        -0.618141
 C         1.565570        -0.030217        -0.188969
 C         2.472367         0.716685        -1.108360
 C         3.643249         0.841092        -0.101165
 C         2.852486         1.030655         1.248307
 O         1.343797         0.833446         0.992498
 C         3.531871        -0.203502         0.936872
 O         4.612187        -0.838801         1.553905
 C         2.478500        -1.132573         0.286631
 H        -0.035861        -1.420559        -0.034244
 H        -0.561836         0.207377        -0.469419
 H         0.233287        -0.876827        -1.617438
 H         2.635372         0.152610        -2.031501
 H         2.181068         1.815196        -1.298168
 H         4.467437         1.443987        -0.246191
 H         2.867581         1.656416         2.142475
 H         4.411552        -1.719836         1.788212
 H         2.873544        -1.604701        -0.570150
 H         1.838095        -1.647769         1.059829
