19
Iteration:  1164charge 0 multiplicity 1
 C         0.143479        -0.551920        -0.657789
 C         1.517343        -0.096197        -0.199038
 C         2.450008         0.729025        -1.105078
 C         3.573990         0.962184        -0.046991
 C         2.755504         0.967591         1.305135
 O         1.398350         0.882602         0.970625
 C         3.572525        -0.269955         0.873362
 O         4.606193        -0.919169         1.601641
 C         2.577624        -1.171769         0.312784
 H        -0.425427        -1.065011         0.191062
 H        -0.530083         0.251607        -1.067502
 H         0.193415        -1.218319        -1.479704
 H         2.776168         0.178562        -1.930248
 H         2.274974         1.819842        -1.466528
 H         4.468238         1.668988        -0.067348
 H         3.063473         1.630899         2.121885
 H         5.467835        -0.792364         1.132864
 H         2.999778        -1.679044        -0.512356
 H         2.084952        -1.794434         1.066487
