19
Iteration:  2067charge 0 multiplicity 1
 C         0.207394        -0.508248        -0.753823
 C         1.552849        -0.066021        -0.229397
 C         2.449175         0.898712        -1.053375
 C         3.601942         0.957485         0.021095
 C         2.678733         0.915741         1.360962
 O         1.297566         0.631217         1.035664
 C         3.502685        -0.241396         0.928974
 O         4.725527        -0.815542         1.520374
 C         2.592855        -1.115897         0.205210
 H         0.138862        -1.664372        -0.675147
 H        -0.504125        -0.139336        -0.027611
 H        -0.033529        -0.099322        -1.772019
 H         2.986376         0.351198        -1.958993
 H         2.141734         1.864372        -1.288859
 H         4.469715         1.531823        -0.041334
 H         2.872476         1.504780         2.289328
 H         4.585987        -1.723586         1.400744
 H         3.157690        -1.598421        -0.575904
 H         2.321377        -1.915200         0.928655
