19
Iteration:  4771charge 0 multiplicity 1
 C         0.232156        -0.520041        -0.766658
 C         1.574438        -0.056360        -0.289185
 C         2.527291         0.930945        -1.008261
 C         3.481287         1.050653         0.172864
 C         2.737024         0.940358         1.384859
 O         1.364570         0.674135         1.030301
 C         3.486540        -0.328217         0.978875
 O         4.694823        -0.867531         1.425861
 C         2.553544        -1.183801         0.168157
 H        -0.633561        -0.636908        -0.050979
 H        -0.040970         0.018790        -1.676441
 H         0.448533        -1.504988        -1.302413
 H         2.948999         0.479889        -1.888591
 H         2.039571         1.981641        -1.374685
 H         4.318018         1.801923         0.052987
 H         2.914514         1.586198         2.218575
 H         4.427755        -1.756046         1.827259
 H         3.097613        -1.697121        -0.661090
 H         1.960673        -1.935985         0.801063
