19
Iteration:   337charge 0 multiplicity 1
 C         0.219082        -0.514016        -0.657648
 C         1.513209        -0.100954        -0.117175
 C         2.463589         0.646924        -1.126890
 C         3.537269         1.023558        -0.013961
 C         2.826943         1.014335         1.276800
 O         1.476194         0.871695         0.955878
 C         3.528743        -0.230156         0.813418
 O         4.593702        -0.878339         1.494229
 C         2.504342        -1.200454         0.388403
 H        -0.532098        -0.676841         0.101583
 H        -0.028185         0.143536        -1.597486
 H         0.501944        -1.421623        -1.229293
 H         2.868887        -0.026759        -1.976384
 H         1.966588         1.478436        -1.523289
 H         4.522679         1.641824        -0.231948
 H         2.897505         1.554804         2.193080
 H         4.221087        -1.252324         2.273337
 H         2.777273        -1.955344        -0.372606
 H         2.108056        -1.797404         1.330726
