19
Iteration:   208
 C         0.118985        -0.505599        -0.708200
 C         1.522520        -0.117780        -0.193036
 C         2.543323         0.774020        -1.013476
 C         3.635546         0.899792        -0.003636
 C         2.843244         0.902835         1.276385
 O         1.456259         0.825576         0.891285
 C         3.519471        -0.316545         0.879103
 O         4.625478        -0.666306         1.457536
 C         2.425501        -1.286763         0.431093
 H        -0.496191        -1.002139         0.019638
 H        -0.460888         0.462396        -1.041221
 H         0.245513        -1.150181        -1.569191
 H         2.901229         0.205579        -1.917577
 H         1.958564         1.710591        -1.333770
 H         4.603830         1.461927        -0.318481
 H         3.053690         1.561614         2.077125
 H         4.419532        -0.998446         2.392050
 H         2.797352        -1.976709        -0.276329
 H         1.909487        -1.772894         1.288612
