19
Iteration:   255charge 0 multiplicity 1
 C         0.071671        -0.218387        -0.761845
 C         1.477120        -0.104079        -0.142034
 C         2.562656         0.502181        -1.174896
 C         3.532761         0.881915        -0.125375
 C         2.772910         0.953245         1.283297
 O         1.451036         0.630289         1.031794
 C         3.565958        -0.242469         0.897534
 O         4.719805        -0.675422         1.565811
 C         2.504307        -1.220982         0.405212
 H        -0.459952        -1.160777        -0.553226
 H        -0.542972         0.590359        -0.377216
 H         0.114662        -0.256706        -1.834992
 H         2.883041        -0.299018        -1.789496
 H         2.219421         1.416579        -1.862363
 H         4.392387         1.608300        -0.102520
 H         2.982484         1.798826         2.019732
 H         4.414893        -0.707577         2.499770
 H         2.813719        -1.854371        -0.426761
 H         2.144367        -1.789972         1.210931
