19
Iteration:  2560charge 0 multiplicity 1
 C         0.141176        -0.312491        -0.920325
 C         1.580223        -0.162724        -0.288687
 C         2.501111         0.868461        -1.020325
 C         3.527877         0.973566         0.056325
 C         2.661969         0.821729         1.388891
 O         1.324797         0.545571         1.025909
 C         3.587604        -0.287042         0.955142
 O         4.735814        -0.715462         1.567198
 C         2.565969        -1.268474         0.243750
 H        -0.343481         0.602598        -0.952230
 H         0.289215        -0.739812        -1.966171
 H        -0.448180        -0.984365        -0.249497
 H         3.007404         0.418673        -1.937795
 H         2.068700         1.822838        -1.341053
 H         4.408272         1.612539        -0.053600
 H         2.820508         1.394704         2.304573
 H         4.897590        -0.015085         2.170801
 H         3.074173        -1.818018        -0.576686
 H         2.001602        -1.940442         1.065164
