19
Iteration:   794
 C         0.100288        -0.325866        -0.822603
 C         1.471603        -0.181764        -0.125497
 C         2.446129         0.584264        -1.055535
 C         3.476284         0.880380        -0.027620
 C         2.814262         0.891374         1.323086
 O         1.422793         0.797819         1.018202
 C         3.585325        -0.303568         0.869983
 O         4.817895        -0.694435         1.513581
 C         2.488690        -1.205381         0.326799
 H        -0.750751        -0.199565        -0.156547
 H         0.077949         0.603936        -1.538326
 H        -0.077650        -1.147947        -1.435240
 H         2.869250         0.022324        -1.973474
 H         2.060262         1.539113        -1.321081
 H         4.475407         1.370737        -0.169492
 H         2.987228         1.520492         2.190325
 H         4.529560        -0.445994         2.446871
 H         2.757762        -1.745051        -0.556567
 H         2.173137        -2.003836         1.070530
