19
Iteration:  2677charge 0 multiplicity 1
 C         0.123692        -0.356686        -0.948571
 C         1.541628        -0.050066        -0.216911
 C         2.532860         0.803054        -1.102032
 C         3.502392         1.038937         0.117220
 C         2.711980         0.846004         1.350521
 O         1.346205         0.550821         1.043599
 C         3.591135        -0.342651         0.940300
 O         4.789631        -0.681517         1.583487
 C         2.485351        -1.259468         0.226953
 H        -0.390760         0.608934        -1.028852
 H         0.340176        -0.877286        -1.983966
 H        -0.487990        -1.091742        -0.231292
 H         3.036833         0.202889        -1.816274
 H         2.024195         1.701244        -1.689791
 H         4.409603         1.598391         0.004083
 H         2.969380         1.292948         2.286695
 H         4.656372        -0.638932         2.594278
 H         2.896085        -1.794688        -0.612332
 H         2.044072        -1.819604         0.965118
