19
Iteration:  3703
 C         0.289890        -0.542430        -0.958634
 C         1.561438        -0.047061        -0.287869
 C         2.504247         0.948761        -1.035575
 C         3.494917         1.056216         0.119792
 C         2.729459         0.894626         1.469213
 O         1.287267         0.626279         1.208214
 C         3.542189        -0.308491         0.876813
 O         4.676554        -0.884042         1.417181
 C         2.520778        -1.150681         0.233499
 H        -0.256194         0.284844        -1.502771
 H         0.796970        -1.247891        -1.746340
 H        -0.149416        -1.171074        -0.205302
 H         2.952688         0.489790        -1.998949
 H         2.068793         1.969781        -1.430067
 H         4.508108         1.709712         0.012191
 H         2.939941         1.559821         2.244108
 H         4.744002        -0.906670         2.338069
 H         2.886576        -1.717564        -0.681951
 H         1.903318        -1.819017         0.892575
