19
Iteration:  1044
 C         0.152998        -0.524625        -0.626752
 C         1.525550        -0.086043        -0.258101
 C         2.542966         0.767481        -1.089819
 C         3.562485         0.960423        -0.012933
 C         2.782622         0.945727         1.250373
 O         1.352875         0.830671         0.966817
 C         3.618875        -0.304784         0.840023
 O         4.706954        -0.726894         1.643046
 C         2.450323        -1.299246         0.279958
 H        -0.369620        -0.804081         0.353465
 H        -0.564674         0.245554        -1.107596
 H         0.061237        -1.296409        -1.306974
 H         2.729802         0.227425        -1.971112
 H         2.134848         1.766375        -1.345793
 H         4.478801         1.717076        -0.071250
 H         3.161954         1.569008         2.065788
 H         4.864666        -1.705346         1.509110
 H         2.502261        -1.771429        -0.658973
 H         1.956120        -1.864078         1.112446
