19
Iteration:   632
 C         0.103065        -0.443992        -0.711381
 C         1.499251        -0.060273        -0.195338
 C         2.576863         0.690673        -1.135720
 C         3.626918         0.913959        -0.068327
 C         2.810961         0.995723         1.266523
 O         1.402578         0.706204         1.082731
 C         3.495840        -0.235246         0.857271
 O         4.659582        -0.726926         1.539093
 C         2.493831        -1.246605         0.355489
 H        -0.622907        -0.743173         0.080583
 H        -0.406463         0.501191        -1.237553
 H         0.195793        -1.283747        -1.342038
 H         2.821271        -0.198647        -1.935819
 H         2.319093         1.497033        -1.820799
 H         4.597221         1.544828        -0.336085
 H         2.975253         1.708417         2.061897
 H         4.451796        -1.201289         2.341565
 H         2.873093        -1.802089        -0.488500
 H         2.060888        -1.812856         1.235581
