19
Iteration:   302
 C         0.182427        -0.615272        -0.633751
 C         1.472443         0.037946        -0.203463
 C         2.474530         0.770210        -1.197469
 C         3.654346         0.806625        -0.065424
 C         2.795091         1.015820         1.287237
 O         1.428924         0.867475         0.930222
 C         3.502417        -0.347529         0.962750
 O         4.721595        -0.815954         1.539933
 C         2.395124        -1.089538         0.379785
 H        -0.104739        -1.583747        -0.113764
 H        -0.719582        -0.087315        -0.684835
 H         0.495497        -1.115210        -1.642623
 H         2.748136         0.284562        -2.201155
 H         2.237700         1.819011        -1.371949
 H         4.607094         1.264972        -0.117169
 H         2.995384         1.673976         2.106630
 H         4.553377        -1.331199         2.308676
 H         2.815580        -1.796832        -0.403713
 H         1.787305        -1.636593         1.165982
