19
Iteration:  3772charge 0 multiplicity 1
 C         0.212047        -0.387314        -0.841109
 C         1.528963        -0.082302        -0.259985
 C         2.541205         0.873400        -1.037146
 C         3.556853         0.966882         0.148084
 C         2.764297         0.801086         1.424893
 O         1.349829         0.499382         1.043887
 C         3.547706        -0.283128         0.878789
 O         4.707523        -0.623852         1.597681
 C         2.471129        -1.228605         0.043883
 H        -0.490977         0.426892        -0.571187
 H         0.069780        -0.211630        -1.920842
 H        -0.183618        -1.376066        -0.497398
 H         2.880321         0.504425        -1.975077
 H         1.971218         1.936881        -1.316251
 H         4.320708         1.623081         0.104931
 H         2.918046         1.504138         2.329264
 H         4.553862        -1.424957         2.169517
 H         3.007487        -1.711639        -0.806216
 H         2.110188        -1.960162         0.861026
