19
Iteration:  3045charge 0 multiplicity 1
 C         0.274252        -0.621822        -0.857884
 C         1.553989        -0.027577        -0.256999
 C         2.503112         0.868336        -1.019819
 C         3.556432         1.110990         0.146873
 C         2.749787         0.890650         1.401326
 O         1.359229         0.713541         1.023868
 C         3.505139        -0.294906         0.846558
 O         4.640132        -0.831680         1.505281
 C         2.501736        -1.188128         0.188672
 H        -0.525401         0.175516        -0.923242
 H         0.629439        -0.908505        -1.812405
 H        -0.069332        -1.393956        -0.040409
 H         3.131294         0.277242        -1.846596
 H         2.238359         1.861232        -1.405912
 H         4.545782         1.777248         0.102040
 H         2.847105         1.318166         2.390323
 H         4.318684        -1.250365         2.308663
 H         2.788623        -1.848482        -0.578846
 H         1.907877        -1.721416         0.880488
