19
Iteration:  4173charge 0 multiplicity 1
 C         0.168963        -0.350815        -0.817515
 C         1.570701        -0.103404        -0.230270
 C         2.463214         0.931434        -1.025818
 C         3.451715         1.110451         0.164914
 C         2.705077         0.703140         1.482764
 O         1.350489         0.500909         1.051116
 C         3.530112        -0.286556         0.846955
 O         4.739456        -0.719718         1.564086
 C         2.661583        -1.234156        -0.036012
 H        -0.268252         0.640722        -0.812359
 H         0.284456        -0.479265        -1.896810
 H        -0.353900        -1.098144        -0.281158
 H         2.921328         0.495606        -2.047834
 H         1.878421         1.768786        -1.230144
 H         4.237620         1.748533         0.146539
 H         2.951556         0.961580         2.530150
 H         4.425710        -0.921592         2.433760
 H         3.099573        -1.559676        -0.978148
 H         2.307206        -2.059759         0.603333
