19
Iteration:  3312charge 0 multiplicity 1
 C         0.204180        -0.556463        -0.817787
 C         1.532641        -0.055463        -0.261664
 C         2.547309         0.952836        -1.058336
 C         3.535341         0.999962         0.121582
 C         2.736782         0.922953         1.384966
 O         1.344000         0.653497         0.965695
 C         3.517699        -0.308276         0.983637
 O         4.699047        -0.843393         1.571913
 C         2.541166        -1.161231         0.191746
 H        -0.678077        -0.028853        -0.341481
 H         0.247362        -0.522932        -1.958933
 H         0.168551        -1.615851        -0.703235
 H         2.874692         0.515844        -1.962736
 H         2.036851         2.024653        -1.202722
 H         4.325900         1.859264         0.069280
 H         2.721434         1.665978         2.201280
 H         4.606411        -1.773089         1.777534
 H         3.097787        -1.396406        -0.702855
 H         2.067568        -1.979420         0.626702
