19
Iteration:  1917
 C         0.102859        -0.460949        -0.813780
 C         1.525464        -0.138362        -0.171796
 C         2.405466         0.920439        -0.959573
 C         3.556255         0.994440         0.009823
 C         2.764361         0.872491         1.338688
 O         1.397733         0.692188         1.032822
 C         3.595967        -0.295183         0.869047
 O         4.636000        -0.792574         1.611625
 C         2.623397        -1.264571         0.143691
 H        -0.618178        -0.311101        -0.053915
 H        -0.078640         0.228759        -1.639216
 H        -0.027964        -1.564724        -1.168064
 H         2.667454         0.577624        -1.934084
 H         1.796295         1.849370        -1.111833
 H         4.384125         1.633747        -0.017605
 H         2.981400         1.377024         2.281246
 H         5.494833        -0.709528         1.156411
 H         3.105720        -1.724235        -0.748612
 H         2.403971        -2.050352         0.868393
