19
Iteration:  4040charge 0 multiplicity 1
 C         0.150702        -0.358767        -0.771371
 C         1.501126        -0.067179        -0.306626
 C         2.518751         0.949044        -0.996983
 C         3.526018         1.015409         0.208814
 C         2.694276         0.733643         1.431731
 O         1.329241         0.502482         1.008792
 C         3.593294        -0.311405         0.810715
 O         4.692534        -0.661452         1.563152
 C         2.685064        -1.237658         0.003070
 H        -0.549063         0.406892        -0.381482
 H        -0.039019        -0.530394        -1.846485
 H        -0.288824        -1.138883        -0.241825
 H         3.065274         0.362530        -1.840450
 H         2.093837         1.907584        -1.235667
 H         4.485442         1.652700         0.241502
 H         2.811543         1.047009         2.430430
 H         4.367046        -1.048134         2.354456
 H         3.138921        -1.669284        -0.896478
 H         2.076154        -1.882945         0.637516
