19
Iteration:  3554charge 0 multiplicity 1
 C         0.315276        -0.508095        -0.949164
 C         1.538881        -0.055817        -0.167716
 C         2.498629         0.818884        -0.959291
 C         3.534558         1.056822         0.157232
 C         2.674221         0.864306         1.434858
 O         1.379661         0.696323         1.038625
 C         3.557697        -0.250732         0.843729
 O         4.692179        -0.869534         1.415181
 C         2.472885        -1.165723         0.259093
 H        -0.664558         0.117461        -0.801363
 H         0.536746        -0.549843        -2.003710
 H         0.084501        -1.664641        -0.803849
 H         2.860599         0.325844        -1.815825
 H         2.003149         1.725646        -1.428297
 H         4.463273         1.819901         0.004766
 H         2.701908         1.375751         2.381850
 H         4.712279        -0.672376         2.341630
 H         2.644060        -1.783535        -0.621579
 H         1.943200        -1.796699         0.990517
