19
Iteration:  2363
 C         0.210501        -0.577906        -0.862775
 C         1.513378        -0.106072        -0.248487
 C         2.495683         0.825695        -1.067327
 C         3.526296         1.032284         0.082558
 C         2.690724         0.930156         1.435209
 O         1.350417         0.766899         0.992225
 C         3.511646        -0.282357         1.017269
 O         4.746220        -0.817439         1.500680
 C         2.587977        -1.141512         0.227543
 H        -0.589428         0.016625        -0.522493
 H         0.291837        -0.502036        -1.970030
 H         0.021095        -1.671838        -0.591153
 H         2.790767         0.328487        -2.045828
 H         2.215731         1.789852        -1.437177
 H         4.344314         1.663599         0.019307
 H         2.921508         1.552381         2.299867
 H         4.530331        -1.644824         1.889852
 H         2.926165        -1.803410        -0.528819
 H         2.105815        -1.832920         0.924083
