19
Iteration:   226
 C         0.119938        -0.305829        -0.765055
 C         1.518490        -0.191794        -0.161666
 C         2.477411         0.614150        -1.100952
 C         3.567842         0.863060        -0.078294
 C         2.767425         1.018676         1.229355
 O         1.408426         0.768152         1.000635
 C         3.553971        -0.337285         0.902097
 O         4.794340        -0.647588         1.580923
 C         2.452617        -1.304556         0.361977
 H        -0.514252        -1.045805        -0.167954
 H        -0.381029         0.650882        -0.735186
 H         0.172377        -0.498407        -1.903128
 H         2.785968         0.170293        -2.098931
 H         2.030435         1.517419        -1.382863
 H         4.463320         1.324986        -0.116488
 H         3.024076         1.571360         2.171549
 H         4.486404        -0.793330         2.527607
 H         2.739586        -1.954198        -0.536257
 H         2.002164        -1.904066         1.213896
