19
Iteration:  2707
 C         0.219296        -0.343907        -0.844021
 C         1.623279        -0.146996        -0.190850
 C         2.536493         0.808881        -0.975444
 C         3.553955         0.986655         0.096356
 C         2.669703         0.873242         1.342348
 O         1.312277         0.581356         0.961946
 C         3.539925        -0.304160         0.879929
 O         4.657299        -0.610533         1.530875
 C         2.555624        -1.303715         0.209979
 H         0.111895         0.630794        -1.367978
 H        -0.001554        -1.135095        -1.454299
 H        -0.564914        -0.470888        -0.098691
 H         3.008396         0.495256        -1.945051
 H         1.906645         1.737714        -1.089464
 H         4.506026         1.644755        -0.019052
 H         2.943101         1.283106         2.288611
 H         4.505669        -1.372667         2.130672
 H         2.997119        -1.896135        -0.662823
 H         2.231404        -2.045835         1.039848
