19
Iteration:   871charge 0 multiplicity 1
 C         0.188506        -0.635247        -0.623094
 C         1.496012        -0.034714        -0.159804
 C         2.493239         0.754919        -1.132936
 C         3.613542         0.848957        -0.026805
 C         2.832903         1.066940         1.263733
 O         1.373579         0.907256         0.991766
 C         3.534420        -0.296697         0.949998
 O         4.661626        -0.820699         1.543751
 C         2.476815        -1.150826         0.271108
 H        -0.184029        -1.480258        -0.032722
 H        -0.675393         0.060006        -0.779119
 H         0.364676        -1.018180        -1.567152
 H         2.875162         0.114840        -2.026580
 H         2.197270         1.666265        -1.567217
 H         4.426038         1.454526        -0.175145
 H         3.207307         1.705374         2.098278
 H         4.419433        -1.688768         1.814390
 H         2.736571        -1.550575        -0.686273
 H         1.983781        -2.030686         0.780755
