19
Iteration:  2329charge 0 multiplicity 1
 C         0.277280        -0.538357        -0.771108
 C         1.575024        -0.072770        -0.202677
 C         2.497662         0.879318        -1.048915
 C         3.578048         1.081017         0.046882
 C         2.742737         0.939450         1.296327
 O         1.380566         0.615418         1.025948
 C         3.540062        -0.267034         0.852585
 O         4.538357        -0.811527         1.645081
 C         2.504407        -1.234877         0.176041
 H        -0.390545         0.282531        -0.875076
 H         0.550726        -0.966329        -1.743279
 H        -0.169065        -1.374009        -0.104522
 H         2.840843         0.277459        -1.933878
 H         2.034235         1.900285        -1.014061
 H         4.356058         1.759101        -0.055163
 H         2.864565         1.542861         2.224447
 H         5.359243        -0.947067         1.145285
 H         2.790440        -1.867281        -0.696677
 H         2.009426        -1.669546         1.061671
