19
Iteration:   540charge 0 multiplicity 1
 C         0.098269        -0.277697        -0.805943
 C         1.500901        -0.178093        -0.152450
 C         2.513768         0.539066        -1.158132
 C         3.517484         0.992958        -0.062161
 C         2.810300         0.919438         1.234472
 O         1.406722         0.787560         1.044005
 C         3.576442        -0.321124         0.893996
 O         4.701230        -0.681010         1.532402
 C         2.488924        -1.297270         0.447700
 H        -0.634996        -0.799218        -0.164000
 H        -0.160348         0.716130        -0.873702
 H         0.169750        -0.835561        -1.828741
 H         3.060504        -0.015619        -1.862212
 H         2.029575         1.394265        -1.672611
 H         4.439474         1.635024        -0.254430
 H         3.157715         1.497475         2.137954
 H         4.598347        -0.782481         2.497105
 H         2.902601        -1.952391        -0.354089
 H         2.174813        -1.844563         1.309349
