19
Iteration:   935
 C         0.138063        -0.326249        -0.736734
 C         1.519838        -0.085271        -0.160031
 C         2.490640         0.627144        -1.098704
 C         3.551774         0.782749        -0.035595
 C         2.759512         0.948008         1.292343
 O         1.377263         0.746181         1.026361
 C         3.572599        -0.317308         0.901102
 O         4.770866        -0.635651         1.478261
 C         2.462489        -1.241392         0.333270
 H        -0.281734        -1.176022        -0.243825
 H        -0.483547         0.634706        -0.651646
 H         0.283035        -0.607996        -1.721835
 H         2.886275        -0.070452        -1.864691
 H         2.187779         1.588407        -1.603060
 H         4.459999         1.299292        -0.065995
 H         2.845099         1.722024         2.101422
 H         4.516670        -0.744898         2.437194
 H         2.776190        -1.799066        -0.520918
 H         2.043051        -2.020055         1.037629
