19
Iteration:  3549
 C         0.331758        -0.504059        -0.940445
 C         1.518975        -0.036185        -0.160309
 C         2.488946         0.825101        -0.970789
 C         3.561592         1.060643         0.167517
 C         2.642737         0.907184         1.449389
 O         1.371406         0.691043         1.004645
 C         3.539022        -0.265129         0.826138
 O         4.710432        -0.866030         1.406981
 C         2.508977        -1.215394         0.277079
 H        -0.514687         0.057489        -0.735561
 H         0.437332        -0.385876        -2.064601
 H        -0.065121        -1.447860        -0.804056
 H         3.016741         0.192126        -1.781659
 H         1.865888         1.624211        -1.384071
 H         4.290120         1.723245         0.032277
 H         2.729240         1.297236         2.498306
 H         4.782696        -0.728341         2.415806
 H         2.647483        -1.791382        -0.672418
 H         1.938424        -1.764292         1.054108
