19
Iteration:  4914charge 0 multiplicity 1
 C         0.192844        -0.604372        -0.774092
 C         1.535349        -0.100592        -0.212325
 C         2.615332         0.864948        -1.019366
 C         3.614550         0.970426         0.124838
 C         2.664306         0.970313         1.360284
 O         1.365189         0.765052         0.964205
 C         3.512968        -0.282014         0.954325
 O         4.665471        -0.848898         1.420814
 C         2.487376        -1.113273         0.220600
 H         0.107455        -1.681684        -0.462402
 H        -0.676448        -0.101738        -0.272865
 H         0.074318        -0.354656        -1.823385
 H         2.965158         0.500251        -1.917094
 H         2.183731         1.919976        -1.297445
 H         4.563988         1.373207        -0.058441
 H         2.862674         1.658376         2.235603
 H         4.674741        -1.616918         2.066351
 H         2.818084        -1.797055        -0.554126
 H         2.000759        -1.774819         0.996548
