19
Iteration:  4587
 C         0.122036        -0.375863        -0.724373
 C         1.618790        -0.110360        -0.317766
 C         2.606822         0.814295        -1.086038
 C         3.526831         1.028113         0.114765
 C         2.684135         0.940124         1.336483
 O         1.358040         0.578202         0.995500
 C         3.526794        -0.317266         0.879525
 O         4.675667        -0.736870         1.605585
 C         2.568041        -1.228268         0.187533
 H        -0.234837        -0.618329        -1.762226
 H        -0.345762        -1.125085        -0.082058
 H        -0.308438         0.588239        -0.283939
 H         3.171298         0.375135        -2.000127
 H         2.228174         1.713536        -1.665702
 H         4.322021         1.683518        -0.119647
 H         2.819048         1.492405         2.302817
 H         4.456131        -1.580338         2.107576
 H         3.137143        -1.773451        -0.554276
 H         1.915210        -1.983260         0.688083
