19
Iteration:   876charge 0 multiplicity 1
 C         0.213474        -0.615663        -0.601049
 C         1.539146        -0.036488        -0.179649
 C         2.475955         0.730077        -1.129919
 C         3.622088         0.813428        -0.049939
 C         2.860371         1.056634         1.253421
 O         1.344369         0.875733         0.996132
 C         3.541582        -0.232189         0.952327
 O         4.632688        -0.826621         1.544003
 C         2.480673        -1.146341         0.285251
 H        -0.172885        -1.512158        -0.020571
 H        -0.609329         0.074278        -0.642519
 H         0.316871        -0.994044        -1.765880
 H         2.760888         0.166512        -1.987552
 H         2.210864         1.812378        -1.476426
 H         4.520603         1.556763        -0.226882
 H         3.022556         1.648390         2.131840
 H         4.423595        -1.768760         1.814590
 H         2.759178        -1.529855        -0.774894
 H         1.875469        -1.818731         0.874280
