19
Iteration:   811
 C         0.071849        -0.240755        -0.856772
 C         1.510757        -0.150243        -0.203467
 C         2.417282         0.683947        -1.088201
 C         3.576757         0.938542        -0.044351
 C         2.797655         1.002141         1.271096
 O         1.432460         0.646029         1.039949
 C         3.538250        -0.306290         1.008332
 O         4.787780        -0.710220         1.476751
 C         2.479691        -1.371139         0.419807
 H        -0.650388        -0.182449        -0.034172
 H        -0.092642         0.520998        -1.548380
 H         0.103977        -1.292786        -1.340166
 H         2.741544         0.050949        -1.850953
 H         1.835143         1.631456        -1.484385
 H         4.455530         1.580974        -0.387672
 H         3.088507         1.713997         2.052242
 H         4.975922        -0.531417         2.430485
 H         2.996452        -2.010751        -0.376895
 H         1.857612        -1.889755         1.123842
