19
Iteration:  1685charge 0 multiplicity 1
 C         0.233544        -0.533949        -0.806353
 C         1.503354        -0.039963        -0.192654
 C         2.512246         0.780059        -0.991927
 C         3.528583         0.922215         0.027478
 C         2.734683         0.964353         1.319759
 O         1.320596         0.803028         1.025014
 C         3.564619        -0.265646         0.954958
 O         4.774144        -0.889314         1.452708
 C         2.467554        -1.103944         0.355897
 H        -0.591211        -0.745201        -0.050065
 H        -0.108654        -0.008673        -1.696882
 H         0.341702        -1.553377        -1.104425
 H         2.703418         0.207924        -1.955448
 H         2.030147         1.692916        -1.179406
 H         4.325238         1.519602        -0.163855
 H         2.962343         1.694948         2.087356
 H         5.156522        -1.342611         0.700809
 H         2.824755        -1.784807        -0.384063
 H         1.844191        -1.727851         1.033556
