19
Iteration:   482
 C         0.115974        -0.560235        -0.690428
 C         1.489500        -0.060036        -0.206797
 C         2.505457         0.625957        -1.078937
 C         3.664182         0.902065         0.011406
 C         2.860624         0.957664         1.293987
 O         1.482801         0.897144         0.944382
 C         3.544158        -0.303911         0.834149
 O         4.673769        -0.684932         1.540856
 C         2.337280        -1.212614         0.329590
 H        -0.088531        -1.574939        -0.310439
 H        -0.782814         0.127681        -0.494008
 H         0.137162        -0.572593        -1.746196
 H         2.878628         0.047961        -1.868745
 H         2.137958         1.588629        -1.520113
 H         4.586349         1.363380        -0.333798
 H         2.979370         1.466517         2.218306
 H         4.542620        -1.048973         2.434824
 H         2.634018        -2.048541        -0.346608
 H         1.808801        -1.675005         1.210701
