19
Iteration:  3010charge 0 multiplicity 1
 C         0.323817        -0.516399        -0.885361
 C         1.545272        -0.033671        -0.274008
 C         2.417290         0.921076        -0.975763
 C         3.548350         0.978333         0.107023
 C         2.708484         0.952441         1.369584
 O         1.282973         0.694273         1.024290
 C         3.546435        -0.320194         0.986356
 O         4.742300        -0.869323         1.475033
 C         2.547867        -1.206190         0.220228
 H        -0.030992         0.266763        -1.710913
 H         0.384118        -1.480539        -1.391997
 H        -0.579318        -0.835566        -0.311877
 H         2.705053         0.456344        -2.063850
 H         2.068478         1.916887        -1.180951
 H         4.458431         1.565012         0.012376
 H         2.700611         1.553830         2.259330
 H         4.706402        -1.125571         2.386176
 H         3.054570        -1.733608        -0.535616
 H         2.016372        -1.844535         0.901201
