19
Iteration:  3070
 C         0.179236        -0.438707        -0.819128
 C         1.570407        -0.117464        -0.293692
 C         2.559488         0.866199        -1.068753
 C         3.562069         0.970571         0.072179
 C         2.671511         0.830824         1.338665
 O         1.328961         0.588476         1.003845
 C         3.548106        -0.297807         0.908753
 O         4.723100        -0.725150         1.602155
 C         2.534149        -1.152366         0.225200
 H        -0.313354         0.378901        -0.472859
 H         0.195033        -0.252618        -1.907313
 H        -0.260513        -1.356207        -0.441950
 H         2.940985         0.457637        -1.939920
 H         2.231497         1.942623        -1.220636
 H         4.241647         1.730726         0.177733
 H         2.750601         1.599177         2.143516
 H         4.460267        -1.456976         2.249048
 H         2.968866        -1.736773        -0.639086
 H         1.992995        -1.816458         0.924563
