19
Iteration:  3506
 C         0.168249        -0.347981        -0.869022
 C         1.545997        -0.093450        -0.267619
 C         2.536796         0.851509        -1.017771
 C         3.573964         0.943152         0.126575
 C         2.754026         0.887678         1.389938
 O         1.304959         0.526954         0.983375
 C         3.518009        -0.296860         0.925052
 O         4.762568        -0.644854         1.553775
 C         2.499366        -1.216047         0.190896
 H        -0.399985         0.508003        -0.558113
 H         0.132190        -0.576296        -2.020767
 H        -0.297118        -1.210629        -0.509911
 H         2.813994         0.246173        -1.926555
 H         2.252667         1.842092        -1.393834
 H         4.397314         1.498179         0.106490
 H         2.753173         1.275540         2.437729
 H         4.607182        -1.429980         2.130249
 H         3.049565        -1.841366        -0.628013
 H         1.993865        -1.915111         0.960434
