19
Iteration:  3577charge 0 multiplicity 1
 C         0.290179        -0.590148        -0.925924
 C         1.539720         0.015368        -0.244867
 C         2.479996         1.007678        -1.039398
 C         3.556672         0.973722         0.089554
 C         2.751905         0.940515         1.385926
 O         1.342572         0.649239         1.125343
 C         3.489066        -0.307920         0.901400
 O         4.670743        -0.875164         1.501499
 C         2.551715        -1.216604         0.214874
 H        -0.525640         0.252977        -0.926442
 H         0.380088        -0.966914        -1.934494
 H        -0.237496        -1.534688        -0.409786
 H         2.873328         0.675213        -2.008013
 H         1.938458         1.914331        -1.345601
 H         4.458722         1.700837         0.003966
 H         3.012084         1.380733         2.295152
 H         4.666991        -0.760822         2.474433
 H         2.902305        -1.779834        -0.621726
 H         1.945664        -1.897883         0.796207
