19
Iteration:  4665
 C         0.285328        -0.526370        -0.938907
 C         1.567897        -0.097684        -0.220221
 C         2.548966         0.916179        -0.977945
 C         3.516819         0.992905         0.158359
 C         2.653859         0.929166         1.422053
 O         1.293073         0.726624         1.048731
 C         3.489931        -0.284715         0.926855
 O         4.813130        -0.872768         1.325728
 C         2.444680        -1.174813         0.288447
 H         0.170413        -1.624317        -1.072223
 H        -0.500006        -0.186180        -0.291683
 H         0.268567        -0.125009        -1.950110
 H         3.115706         0.383647        -1.848179
 H         2.040795         1.782942        -1.314895
 H         4.415940         1.694975         0.036019
 H         2.850126         1.298025         2.421945
 H         4.701315        -1.091353         2.307055
 H         2.803034        -1.950833        -0.359807
 H         1.882697        -1.654742         1.100068
