19
Iteration:  4271
 C         0.231118        -0.476472        -0.886038
 C         1.539258        -0.053793        -0.286173
 C         2.551351         0.913944        -1.005122
 C         3.454235         1.042360         0.215414
 C         2.671295         0.827760         1.520839
 O         1.297381         0.598521         1.042265
 C         3.534909        -0.303133         0.943747
 O         4.742363        -0.761186         1.412649
 C         2.594354        -1.173258         0.126721
 H        -0.359651        -0.757537        -0.015234
 H        -0.280199         0.319881        -1.473984
 H         0.433182        -1.418497        -1.439886
 H         3.140778         0.410988        -1.852856
 H         2.140815         1.816750        -1.277203
 H         4.307341         1.753249         0.252904
 H         2.715510         1.553801         2.329949
 H         4.696018        -1.699779         1.407381
 H         3.075958        -1.662823        -0.742714
 H         2.111103        -1.797595         0.911345
