19
Iteration:  3850
 C         0.278729        -0.592046        -0.862392
 C         1.576729        -0.047366        -0.263392
 C         2.525370         1.017011        -0.960097
 C         3.505945         1.057719         0.225969
 C         2.671094         0.796180         1.513266
 O         1.350222         0.636363         1.025523
 C         3.529092        -0.303487         0.842265
 O         4.685545        -0.860268         1.357225
 C         2.525431        -1.158193         0.169340
 H        -0.032152         0.160636        -1.631142
 H         0.572627        -1.485837        -1.425060
 H        -0.545111        -0.742871        -0.032927
 H         2.923809         0.503918        -1.880340
 H         1.919113         2.063454        -1.163521
 H         4.377971         1.817503         0.079202
 H         2.730286         1.337639         2.403573
 H         4.714893        -0.638882         2.353603
 H         2.992746        -1.534253        -0.762950
 H         1.962342        -1.900361         0.880915
