19
Iteration:  4560charge 0 multiplicity 1
 C         0.204484        -0.450041        -0.840138
 C         1.528479        -0.066116        -0.158646
 C         2.554524         0.826158        -1.051745
 C         3.595029         0.977410         0.079524
 C         2.703421         0.824357         1.403992
 O         1.359292         0.719096         0.957477
 C         3.515437        -0.322097         0.872799
 O         4.710228        -0.726368         1.518158
 C         2.492730        -1.237128         0.246947
 H         0.247186        -0.232060        -1.900216
 H        -0.183734        -1.501637        -0.774514
 H        -0.580610         0.105377        -0.365485
 H         2.840555         0.307968        -1.935143
 H         2.158340         1.780941        -1.492599
 H         4.547335         1.626186        -0.026031
 H         2.762288         1.201800         2.442961
 H         4.595442        -0.810024         2.516098
 H         2.918233        -1.757204        -0.666370
 H         1.993630        -1.990008         0.885504
