19
Iteration:  1174charge 0 multiplicity 1
 C         0.102325        -0.606540        -0.707338
 C         1.495889        -0.058460        -0.172546
 C         2.447480         0.738582        -1.154347
 C         3.567091         0.907919        -0.006341
 C         2.839369         0.956753         1.283667
 O         1.436252         0.876652         1.025487
 C         3.559142        -0.284029         0.922659
 O         4.641403        -0.880282         1.670139
 C         2.529625        -1.116520         0.205679
 H        -0.648163        -0.846508         0.100367
 H        -0.252156         0.383880        -1.144158
 H         0.082246        -1.412896        -1.351267
 H         2.906594         0.147087        -1.858334
 H         1.805624         1.633210        -1.661764
 H         4.323221         1.760199        -0.185480
 H         3.048407         1.536268         2.175775
 H         5.401207        -0.803685         1.000685
 H         2.994974        -1.636614        -0.589848
 H         2.141325        -1.910610         0.866628
