19
Iteration:  4438
 C         0.150673        -0.395206        -0.836827
 C         1.589184        -0.106225        -0.196768
 C         2.506239         0.809597        -1.037502
 C         3.509929         1.061374         0.021150
 C         2.800132         0.817076         1.278998
 O         1.419645         0.630067         0.985344
 C         3.525156        -0.380841         0.871615
 O         4.686696        -0.676017         1.663210
 C         2.512553        -1.229670         0.218366
 H         0.231450        -0.056520        -1.873901
 H        -0.193991        -1.390446        -0.830877
 H        -0.639419         0.184711        -0.342689
 H         2.798345         0.467432        -1.991861
 H         1.926347         1.683725        -1.141538
 H         4.389630         1.586476         0.060042
 H         2.889106         1.355144         2.217997
 H         4.269657        -1.238625         2.337302
 H         3.058723        -1.659876        -0.627278
 H         1.987175        -1.867527         0.917000
