19
Iteration:  4453charge 0 multiplicity 1
 C         0.185941        -0.370104        -0.745440
 C         1.543332        -0.117237        -0.329462
 C         2.515001         0.870662        -1.079759
 C         3.639214         0.896020         0.062169
 C         2.691058         0.857621         1.359621
 O         1.373216         0.629781         0.987763
 C         3.534754        -0.292242         0.871278
 O         4.667277        -0.621289         1.669650
 C         2.544633        -1.314262         0.163034
 H        -0.197987        -0.019954        -1.714324
 H        -0.072360        -1.479505        -0.689454
 H        -0.520975         0.207444        -0.131784
 H         2.986797         0.348599        -1.933952
 H         2.032996         1.982047        -1.213381
 H         4.473995         1.650960        -0.108626
 H         2.991671         1.410781         2.269312
 H         4.576170        -1.435968         2.263438
 H         2.819260        -1.890892        -0.776657
 H         1.956922        -2.029235         0.828624
