19
Iteration:  2039charge 0 multiplicity 1
 C         0.111551        -0.431871        -0.762166
 C         1.560615        -0.126451        -0.202427
 C         2.440681         0.820292        -1.015498
 C         3.523948         1.032389         0.070793
 C         2.798230         0.876150         1.356564
 O         1.442697         0.634919         1.015012
 C         3.554733        -0.338926         0.774043
 O         4.642595        -0.694316         1.715851
 C         2.507913        -1.247293         0.077899
 H        -0.019847        -1.480830        -0.716384
 H        -0.687095         0.028620        -0.146160
 H         0.048824        -0.051238        -1.789372
 H         2.986951         0.518741        -1.821779
 H         1.972546         1.849611        -1.273222
 H         4.427750         1.721558        -0.158354
 H         3.029209         1.192636         2.361766
 H         5.439745        -0.725500         1.197681
 H         2.815638        -1.865794        -0.801020
 H         2.183680        -2.007372         0.800745
