19
Iteration:  3929
 C         0.182234        -0.367166        -0.890938
 C         1.525415        -0.164177        -0.166780
 C         2.546210         0.928345        -0.972329
 C         3.442182         1.049962         0.206180
 C         2.650724         0.755661         1.430855
 O         1.351844         0.604450         1.000245
 C         3.555334        -0.339541         0.848222
 O         4.778737        -0.669714         1.436881
 C         2.584556        -1.220896         0.146899
 H        -0.316074         0.612880        -0.785135
 H         0.596291        -0.806204        -1.805719
 H        -0.379924        -1.186456        -0.384121
 H         3.055423         0.462856        -1.949685
 H         1.968138         1.894236        -1.279191
 H         4.314065         1.544302         0.296067
 H         2.857920         1.305932         2.414340
 H         4.519273        -1.431776         2.081765
 H         2.854902        -1.839254        -0.745424
 H         2.139786        -1.972888         0.864208
