19
Iteration:   903charge 0 multiplicity 1
 C         0.113190        -0.486115        -0.654697
 C         1.577166        -0.159575        -0.204360
 C         2.479989         0.814310        -1.162950
 C         3.550174         1.010111        -0.059967
 C         2.845877         0.977585         1.208538
 O         1.463489         0.763268         0.957142
 C         3.596061        -0.257890         0.813703
 O         4.618278        -0.796342         1.602777
 C         2.478958        -1.284018         0.465771
 H        -0.256208        -1.419766        -0.280271
 H        -0.650377         0.321792        -0.437592
 H         0.159501        -0.576321        -1.663055
 H         3.015426         0.276417        -2.000107
 H         1.931073         1.702770        -1.494849
 H         4.359160         1.637482        -0.181107
 H         3.067107         1.688626         2.050831
 H         4.290490        -1.636624         1.988304
 H         2.661516        -1.971865        -0.300010
 H         1.962789        -1.618780         1.412228
