19
Iteration:  2106
 C         0.273181        -0.550816        -0.888407
 C         1.551398        -0.053902        -0.200401
 C         2.497020         0.891896        -1.000157
 C         3.486165         1.061872         0.087282
 C         2.733900         0.841566         1.416270
 O         1.310877         0.728003         1.056244
 C         3.576568        -0.269142         0.846757
 O         4.714848        -0.867663         1.370932
 C         2.508574        -1.184730         0.347222
 H         0.339901        -1.647280        -0.986781
 H        -0.635029        -0.296514        -0.281361
 H         0.150675        -0.086035        -1.840272
 H         2.834030         0.362550        -1.840391
 H         1.945850         1.751251        -1.533627
 H         4.405442         1.608135        -0.033576
 H         2.974856         1.130974         2.438305
 H         4.974632        -0.410160         2.223120
 H         2.701545        -1.983913        -0.429052
 H         1.912245        -1.791189         1.071747
