19
Iteration:  2386
 C         0.276201        -0.458520        -0.835877
 C         1.537694        -0.134457        -0.239399
 C         2.594612         0.830972        -0.968961
 C         3.542714         1.047744         0.116943
 C         2.666260         0.934957         1.324149
 O         1.323488         0.592404         1.006666
 C         3.509763        -0.338969         0.851001
 O         4.701059        -0.731054         1.437214
 C         2.456392        -1.208285         0.316916
 H        -0.364533         0.229318        -0.335780
 H         0.340593        -0.226595        -1.944095
 H         0.041784        -1.566828        -0.665362
 H         3.027610         0.330939        -1.918598
 H         2.344589         1.773241        -1.327739
 H         4.510931         1.588347         0.096427
 H         2.889378         1.507787         2.200058
 H         4.685285        -0.483331         2.433000
 H         2.710831        -1.887673        -0.458741
 H         1.950792        -1.889101         0.965623
