19
Iteration:  4921
 C         0.223643        -0.589205        -0.804172
 C         1.520535        -0.008731        -0.287225
 C         2.532514         0.833641        -0.961572
 C         3.576068         0.984881         0.158947
 C         2.729286         0.981289         1.336040
 O         1.348623         0.794197         0.983560
 C         3.503047        -0.351653         0.919653
 O         4.717779        -0.822740         1.424865
 C         2.499462        -1.161099         0.297649
 H         0.093173        -1.685987        -0.737570
 H        -0.609535        -0.119796        -0.315447
 H         0.134846        -0.511140        -1.924883
 H         2.925743         0.352204        -1.960727
 H         2.106570         1.751193        -1.363690
 H         4.577779         1.365709        -0.027333
 H         2.931006         1.418813         2.269380
 H         4.527700        -1.618050         1.979251
 H         2.815465        -1.820786        -0.523170
 H         1.959178        -1.690684         1.085123
