19
Iteration:   826
 C         0.194532        -0.348141        -0.722467
 C         1.555882        -0.119059        -0.187090
 C         2.559008         0.727585        -1.099088
 C         3.536751         0.913355        -0.072743
 C         2.739437         0.937880         1.234512
 O         1.370581         0.643373         1.044532
 C         3.533574        -0.291579         0.870015
 O         4.741323        -0.737652         1.444219
 C         2.443938        -1.233331         0.444309
 H        -0.531506        -0.351484         0.054795
 H        -0.095911         0.520905        -1.410216
 H         0.031155        -1.195749        -1.281336
 H         2.799414         0.272766        -2.087476
 H         2.103224         1.719381        -1.348788
 H         4.531008         1.379970        -0.007639
 H         2.818306         1.696233         2.001509
 H         4.641599        -0.686655         2.378300
 H         2.762191        -2.017819        -0.186993
 H         1.935584        -1.632252         1.380104
