19
Iteration:  1107charge 0 multiplicity 1
 C         0.101474        -0.396666        -0.836242
 C         1.458768        -0.091606        -0.077354
 C         2.455389         0.589573        -1.037459
 C         3.602314         0.880820        -0.054148
 C         2.773642         0.974106         1.302122
 O         1.360558         0.808397         0.964671
 C         3.588207        -0.318765         0.885340
 O         4.785674        -0.770397         1.574989
 C         2.456396        -1.207850         0.394949
 H        -0.319911        -1.318236        -0.455207
 H        -0.592459         0.482481        -0.595966
 H         0.394584        -0.463212        -1.881581
 H         2.770668        -0.060274        -1.834263
 H         2.166061         1.645661        -1.507282
 H         4.509185         1.573923        -0.134229
 H         2.935399         1.577955         2.180296
 H         5.444300        -0.205480         1.131521
 H         2.608874        -1.760651        -0.551008
 H         2.045999        -1.994581         1.023998
