19
Iteration:  1481
 C         0.044164        -0.383769        -0.696644
 C         1.516679        -0.132744        -0.186943
 C         2.474918         0.792969        -1.056024
 C         3.584147         0.855664        -0.037162
 C         2.779253         0.924955         1.264023
 O         1.371955         0.773431         0.997476
 C         3.585005        -0.322181         0.842136
 O         4.762230        -0.743395         1.618753
 C         2.555773        -1.313185         0.215470
 H        -0.642958        -0.670441         0.164688
 H        -0.463668         0.392308        -1.287766
 H         0.213610        -1.334506        -1.354467
 H         2.743959         0.458554        -1.985889
 H         2.017717         1.858900        -1.174889
 H         4.507317         1.477080        -0.152638
 H         3.094885         1.692985         1.998196
 H         4.761120        -0.230789         2.407367
 H         2.762623        -2.018628        -0.600346
 H         1.923042        -1.927303         0.915312
