19
Iteration:  2155
 C         0.173269        -0.355806        -0.781836
 C         1.545789        -0.135191        -0.242451
 C         2.445901         0.815924        -1.033750
 C         3.492078         1.043186         0.075770
 C         2.706761         0.778693         1.424010
 O         1.394313         0.629216         0.984230
 C         3.556257        -0.267814         0.837413
 O         4.700089        -0.662564         1.601928
 C         2.598857        -1.256121         0.185669
 H         0.111152        -1.330921        -1.363521
 H        -0.579259        -0.403332         0.020383
 H        -0.117793         0.560565        -1.447067
 H         2.919970         0.525416        -2.044847
 H         1.854289         1.573719        -1.336257
 H         4.500138         1.601206        -0.014289
 H         2.900881         1.193854         2.385493
 H         5.072503        -1.555231         1.406465
 H         2.883658        -1.921902        -0.591113
 H         2.254138        -1.936154         0.962119
