19
Iteration:  4341
 C         0.204105        -0.458447        -0.845850
 C         1.562274        -0.009846        -0.232308
 C         2.504684         0.884624        -1.039888
 C         3.534598         1.072906         0.104229
 C         2.744713         0.876976         1.408490
 O         1.331429         0.555391         1.034375
 C         3.565297        -0.338550         0.915569
 O         4.614032        -0.788965         1.627161
 C         2.563980        -1.241036         0.158961
 H         0.198443        -1.532321        -1.069768
 H        -0.595564        -0.149602        -0.230360
 H         0.116625         0.014559        -1.807493
 H         2.846806         0.320009        -1.862384
 H         2.010365         1.898166        -1.351787
 H         4.397627         1.695729        -0.171890
 H         2.975078         1.461262         2.266778
 H         5.395340        -0.745837         1.060026
 H         2.997195        -1.532966        -0.775407
 H         1.906601        -1.894843         0.670987
