19
Iteration:   946charge 0 multiplicity 1
 C         0.193899        -0.367304        -0.737005
 C         1.476778        -0.082037        -0.099143
 C         2.594411         0.654722        -1.131599
 C         3.549022         0.807495        -0.016000
 C         2.763600         1.000364         1.282370
 O         1.368087         0.723522         1.044923
 C         3.434918        -0.371387         0.932836
 O         4.764995        -0.621039         1.425548
 C         2.465513        -1.308219         0.320133
 H        -0.552660        -0.920810        -0.180412
 H        -0.358008         0.660875        -0.806054
 H         0.270574        -0.668624        -1.703558
 H         2.731419         0.009273        -2.039513
 H         2.253321         1.688846        -1.457128
 H         4.488419         1.303533        -0.115515
 H         3.088391         1.770329         2.053554
 H         4.834875        -0.497741         2.443971
 H         3.008714        -1.765008        -0.465904
 H         1.906503        -1.982993         1.050324
