19
Iteration:  2437charge 0 multiplicity 1
 C         0.217204        -0.400675        -0.858547
 C         1.530070        -0.159422        -0.214266
 C         2.514376         0.823215        -1.018393
 C         3.590977         0.980993         0.049539
 C         2.641194         0.978569         1.338950
 O         1.301346         0.578363         1.072449
 C         3.574304        -0.300926         0.872524
 O         4.644457        -0.750804         1.664921
 C         2.586813        -1.240920         0.153233
 H        -0.317689         0.587274        -0.865960
 H         0.514719        -0.701303        -1.837498
 H        -0.369816        -1.158325        -0.292837
 H         2.878987         0.501139        -1.970018
 H         1.940398         1.828633        -1.305822
 H         4.382723         1.617869         0.193331
 H         2.859396         1.597949         2.198924
 H         5.492652        -0.681316         1.153536
 H         3.110120        -1.669450        -0.791448
 H         2.046068        -2.098072         0.784431
