19
Iteration:  1141
 C         0.275173        -0.535169        -0.646688
 C         1.595468        -0.132844        -0.180998
 C         2.527155         0.764836        -1.091052
 C         3.602836         0.979916        -0.015646
 C         2.783383         1.052795         1.244951
 O         1.416950         0.731643         0.960011
 C         3.478879        -0.327828         0.847248
 O         4.594036        -0.855306         1.509513
 C         2.365420        -1.198077         0.407573
 H        -0.208563        -1.238772         0.071027
 H        -0.394835         0.403326        -0.581641
 H         0.110584        -0.839886        -1.627278
 H         3.054872         0.373682        -1.883415
 H         1.965903         1.780646        -1.471647
 H         4.557913         1.677922        -0.121050
 H         2.903402         1.608950         2.143695
 H         5.369146        -0.362332         1.125901
 H         2.701529        -1.916254        -0.294360
 H         1.760192        -1.517172         1.269186
