19
Iteration:   121
 C         0.065337        -0.357469        -0.747798
 C         1.462085        -0.002286        -0.202481
 C         2.518719         0.708795        -1.151941
 C         3.621264         0.843616        -0.078943
 C         2.787812         0.877335         1.219204
 O         1.402692         0.640148         1.009872
 C         3.553680        -0.383957         0.940204
 O         4.829752        -0.584000         1.578090
 C         2.420901        -1.243835         0.376586
 H        -0.672796        -0.454036        -0.014254
 H        -0.228304         0.447731        -1.450228
 H         0.100733        -1.299926        -1.159398
 H         2.680041         0.090172        -2.028802
 H         2.186338         1.744219        -1.391665
 H         4.390599         1.568172        -0.125321
 H         3.009555         1.567647         2.097785
 H         4.724819        -0.834148         2.541929
 H         2.632300        -2.008060        -0.316683
 H         1.847113        -1.782258         1.106063
