19
Iteration:   328
 C         0.212222        -0.623310        -0.707955
 C         1.537541        -0.084224        -0.144747
 C         2.513178         0.662867        -1.071030
 C         3.595856         0.990386        -0.025929
 C         2.820340         1.095454         1.255709
 O         1.451985         0.912312         1.031627
 C         3.547663        -0.295098         0.803120
 O         4.570399        -0.868862         1.485198
 C         2.444805        -1.177435         0.358198
 H        -0.452084        -0.965883         0.052089
 H        -0.473552         0.116936        -1.321682
 H         0.411369        -1.532612        -1.189478
 H         2.974026         0.023768        -1.830277
 H         2.073733         1.565340        -1.478333
 H         4.491643         1.699395        -0.208993
 H         3.185004         1.765964         2.068143
 H         4.204657        -1.324943         2.225952
 H         2.716858        -1.821939        -0.471129
 H         1.991714        -1.791652         1.201340
