19
Iteration:  3177
 C         0.282765        -0.592012        -0.823769
 C         1.532139        -0.027920        -0.204962
 C         2.540988         0.940675        -0.969912
 C         3.536796         1.038651         0.126071
 C         2.677229         0.975719         1.409817
 O         1.281972         0.702946         0.992262
 C         3.546468        -0.342994         0.871484
 O         4.685990        -0.866453         1.520735
 C         2.588365        -1.138969         0.125481
 H        -0.196341         0.009894        -1.537575
 H         0.505565        -1.592749        -1.265867
 H        -0.571836        -0.838983        -0.098534
 H         2.945761         0.368728        -1.851812
 H         2.179164         1.875584        -1.371603
 H         4.419205         1.509398         0.133857
 H         2.835247         1.432652         2.398875
 H         4.289732        -1.650972         2.016991
 H         2.966680        -1.547773        -0.784192
 H         2.219081        -1.936513         0.671734
