19
Iteration:  3054charge 0 multiplicity 1
 C         0.264484        -0.505925        -0.836853
 C         1.546653         0.043189        -0.267991
 C         2.562370         0.919216        -1.093506
 C         3.521844         1.066868         0.094378
 C         2.685923         0.869192         1.397989
 O         1.324830         0.617007         1.018014
 C         3.576676        -0.294956         0.887613
 O         4.703951        -0.814749         1.569442
 C         2.488103        -1.202313         0.216033
 H        -0.769070         0.077645        -0.803653
 H         0.268624        -0.903864        -1.843454
 H         0.191543        -1.459632        -0.209107
 H         3.005285         0.196283        -1.955113
 H         2.065878         1.754631        -1.545060
 H         4.527260         1.645774         0.036104
 H         2.952752         1.271695         2.337954
 H         4.295874        -1.339716         2.265160
 H         2.868916        -1.863411        -0.517277
 H         1.919241        -1.708647         0.991506
