19
Iteration:  4905charge 0 multiplicity 1
 C         0.170434        -0.577206        -0.693783
 C         1.553746        -0.092202        -0.198104
 C         2.670451         0.906358        -1.097959
 C         3.632053         0.960852         0.044144
 C         2.692086         0.941682         1.413572
 O         1.343164         0.719252         0.944008
 C         3.494368        -0.210209         0.949661
 O         4.657598        -0.869384         1.431201
 C         2.482426        -1.186502         0.221527
 H         0.047064        -1.655047        -0.503040
 H        -0.597418         0.030376        -0.150868
 H         0.071389        -0.475640        -1.757868
 H         3.074001         0.409946        -1.938449
 H         2.197869         1.911087        -1.113321
 H         4.452048         1.723748         0.209015
 H         2.664952         1.786018         2.178843
 H         4.248541        -1.435515         2.190310
 H         3.036454        -1.571339        -0.669101
 H         1.986174        -1.991408         0.804112
