19
Iteration:  4785charge 0 multiplicity 1
 C         0.273433        -0.531917        -0.835194
 C         1.560192        -0.023773        -0.182663
 C         2.625206         0.798564        -1.006705
 C         3.603440         1.087846         0.145069
 C         2.606317         0.875303         1.434420
 O         1.293208         0.642671         0.999374
 C         3.512132        -0.232617         0.957940
 O         4.714555        -0.871165         1.314692
 C         2.483566        -1.078088         0.238792
 H        -0.414233        -0.388223         0.034519
 H        -0.104058         0.183924        -1.571824
 H         0.255093        -1.568465        -1.050669
 H         3.025457         0.164226        -1.849123
 H         2.081466         1.727108        -1.276884
 H         4.404262         1.746280         0.325255
 H         2.644449         1.385675         2.377478
 H         4.622784        -1.719328         1.703079
 H         2.928834        -1.504296        -0.667157
 H         1.998602        -1.868564         0.853754
