19
Iteration:  4136charge 0 multiplicity 1
 C         0.229645        -0.483815        -0.853320
 C         1.564468        -0.110294        -0.264872
 C         2.574357         1.044128        -0.955352
 C         3.505241         1.103559         0.201536
 C         2.630998         0.759918         1.499644
 O         1.277596         0.552236         1.021713
 C         3.512909        -0.295676         0.906204
 O         4.756936        -0.768363         1.360772
 C         2.608028        -1.181397         0.130450
 H        -0.263582         0.314936        -1.527699
 H         0.414747        -1.461768        -1.434223
 H        -0.633441        -0.702199        -0.162003
 H         2.836360         0.806787        -1.966890
 H         2.005852         2.028235        -0.899218
 H         4.433203         1.820153         0.402126
 H         2.857382         1.193471         2.467899
 H         4.624222        -1.654420         1.771943
 H         3.117705        -1.779894        -0.700494
 H         2.085719        -1.901495         0.882057
