19
Iteration:   171charge 0 multiplicity 1
 C         0.170631        -0.627239        -0.648038
 C         1.511739         0.017303        -0.170942
 C         2.519736         0.760239        -1.059054
 C         3.599654         0.966744        -0.063360
 C         2.766194         1.070081         1.259003
 O         1.365820         0.843985         0.953445
 C         3.545764        -0.261172         0.957993
 O         4.690023        -0.968436         1.471198
 C         2.500589        -1.095733         0.339903
 H        -0.642847        -0.815553         0.186800
 H        -0.276136        -0.221562        -1.550261
 H         0.560404        -1.735066        -0.923042
 H         2.917696        -0.093673        -1.747597
 H         2.230932         1.598483        -1.632037
 H         4.349974         1.702181        -0.091483
 H         3.002971         1.964103         1.900346
 H         4.366112        -1.547861         2.202972
 H         2.873416        -1.728659        -0.565186
 H         1.892491        -1.839905         0.965106
