19
Iteration:  1590
 C         0.172082        -0.477072        -0.665909
 C         1.510859        -0.110337        -0.116262
 C         2.478091         0.652783        -1.077672
 C         3.647549         1.011489        -0.039329
 C         2.791610         0.934823         1.295045
 O         1.458721         0.771027         1.025693
 C         3.565739        -0.245157         0.746014
 O         4.601407        -0.727591         1.509735
 C         2.445857        -1.212369         0.300241
 H         0.007431        -1.538075        -0.420477
 H        -0.526927         0.279645        -0.436776
 H         0.219444        -0.540779        -1.824769
 H         2.815168         0.100476        -1.897741
 H         2.046973         1.703019        -1.451459
 H         4.602732         1.356756        -0.155093
 H         3.137716         1.466797         2.173079
 H         4.225258        -1.173468         2.346449
 H         2.629218        -1.959267        -0.487871
 H         2.080002        -1.787972         1.207718
