19
Iteration:  4794charge 0 multiplicity 1
 C         0.265239        -0.466961        -0.852134
 C         1.536136        -0.092434        -0.235607
 C         2.644612         0.826838        -0.989397
 C         3.557024         1.020676         0.184209
 C         2.605704         0.870659         1.519254
 O         1.241418         0.697918         1.030748
 C         3.562043        -0.203064         0.874004
 O         4.744420        -0.837858         1.279669
 C         2.515898        -1.159575         0.273044
 H        -0.418544        -0.402230         0.064310
 H        -0.085808         0.050696        -1.750220
 H         0.280464        -1.539823        -1.174765
 H         3.129492         0.153794        -1.687158
 H         2.273690         1.835432        -1.583937
 H         4.478390         1.616235         0.179101
 H         2.563962         1.400953         2.420533
 H         4.388285        -1.587975         1.727184
 H         2.817403        -1.757534        -0.622880
 H         2.096791        -1.835042         1.105459
