19
Iteration:  4118
 C         0.385044        -0.578477        -0.999766
 C         1.548193        -0.008310        -0.244104
 C         2.395071         1.001757        -0.832414
 C         3.461044         1.083116         0.289267
 C         2.684535         0.801821         1.528134
 O         1.342182         0.646880         1.057320
 C         3.514750        -0.295531         0.809253
 O         4.785837        -0.815384         1.317465
 C         2.519876        -1.170204         0.176545
 H         0.025325         0.178728        -1.697203
 H         0.514326        -1.581307        -1.381744
 H        -0.365777        -0.667217        -0.281363
 H         2.972265         0.508036        -1.769964
 H         1.841463         1.776413        -1.251381
 H         4.319216         1.726282         0.151519
 H         2.762235         1.244445         2.572387
 H         4.564778        -1.623457         1.856715
 H         2.703284        -1.679043        -0.758637
 H         2.052861        -1.948154         0.769136
