19
Iteration:  3195charge 0 multiplicity 1
 C         0.157149        -0.538956        -0.855968
 C         1.551594        -0.033300        -0.303734
 C         2.585018         0.929980        -1.086569
 C         3.593005         1.088412         0.124494
 C         2.686787         0.790852         1.394530
 O         1.374132         0.583885         1.083039
 C         3.555363        -0.284168         0.924787
 O         4.657197        -0.766061         1.556572
 C         2.525213        -1.145631         0.137338
 H        -0.311639         0.181213        -1.670786
 H         0.309093        -1.529701        -1.169810
 H        -0.492133        -0.668386         0.033246
 H         2.947386         0.338792        -1.991694
 H         2.179795         1.914600        -1.323867
 H         4.381952         1.948593         0.259224
 H         2.855871         1.439697         2.286528
 H         4.322095        -1.584783         2.043304
 H         3.028374        -1.695538        -0.707280
 H         1.968809        -1.871221         0.918464
