19
Iteration:  4501
 C         0.277074        -0.516470        -0.889583
 C         1.563603        -0.079319        -0.223632
 C         2.541190         0.812671        -1.013193
 C         3.491377         1.075724         0.125301
 C         2.734533         0.947208         1.386788
 O         1.333159         0.751073         1.016447
 C         3.565290        -0.272703         0.875537
 O         4.670244        -0.887560         1.455672
 C         2.505595        -1.205754         0.264473
 H         0.146832        -0.128758        -1.921205
 H         0.195821        -1.589439        -0.892560
 H        -0.599311        -0.040185        -0.358892
 H         2.888336         0.099246        -1.850900
 H         1.955042         1.607727        -1.331433
 H         4.412801         1.524484        -0.017546
 H         2.863748         1.528530         2.301121
 H         4.567468        -1.054002         2.378387
 H         2.952889        -1.975035        -0.328597
 H         1.956942        -1.678393         1.083882
