19
Iteration:   607
 C         0.227881        -0.589037        -0.587326
 C         1.554996        -0.066089        -0.223195
 C         2.487694         0.743549        -1.123358
 C         3.549193         1.005037         0.000270
 C         2.805912         0.996687         1.283198
 O         1.403822         0.872482         0.883959
 C         3.550492        -0.262649         0.849023
 O         4.662841        -0.913024         1.555040
 C         2.471327        -1.166509         0.354346
 H        -0.439465        -0.609681         0.239087
 H        -0.247380         0.048758        -1.333738
 H         0.301054        -1.654621        -0.993060
 H         2.767409         0.214089        -2.029224
 H         1.988056         1.608675        -1.451663
 H         4.370662         1.554917        -0.161937
 H         3.001878         1.724225         2.067991
 H         4.254392        -1.486061         2.254183
 H         2.733083        -1.759537        -0.507012
 H         1.978118        -1.673554         1.178447
