19
Iteration:  4713charge 0 multiplicity 1
 C         0.163769        -0.327347        -0.870364
 C         1.589255        -0.084716        -0.345734
 C         2.503832         0.833974        -1.108037
 C         3.541871         1.074395         0.081883
 C         2.744216         0.813846         1.416231
 O         1.342221         0.573978         1.146734
 C         3.529900        -0.328780         0.895928
 O         4.691606        -0.766345         1.558804
 C         2.556811        -1.240963         0.181595
 H        -0.224604        -1.210744        -0.387313
 H        -0.362467         0.590989        -0.498578
 H         0.169442        -0.494015        -1.957912
 H         2.740053         0.199588        -2.028835
 H         1.889691         1.762405        -1.297255
 H         4.489559         1.452488        -0.066652
 H         2.929164         1.286388         2.424634
 H         4.681163        -0.436090         2.446811
 H         3.034300        -1.665531        -0.733306
 H         2.095311        -2.054685         0.722766
