19
Iteration:  4428
 C         0.189699        -0.409733        -0.895962
 C         1.524497        -0.108897        -0.203283
 C         2.432406         0.800169        -1.031549
 C         3.520734         1.074344         0.053015
 C         2.746171         0.881279         1.318983
 O         1.436175         0.658755         1.039203
 C         3.581177        -0.308397         0.851942
 O         4.688876        -0.778779         1.620625
 C         2.569558        -1.243178         0.246643
 H         0.336280        -0.161436        -1.961660
 H        -0.105953        -1.439813        -0.911568
 H        -0.621497         0.217338        -0.649829
 H         2.835105         0.298587        -1.851782
 H         1.841369         1.725858        -1.294674
 H         4.406814         1.591018        -0.108578
 H         2.966081         1.452104         2.229406
 H         4.359797        -1.005553         2.534421
 H         2.755066        -1.881838        -0.631047
 H         1.999975        -1.860557         0.943214
