19
Iteration:  3513
 C         0.130095        -0.366298        -0.900703
 C         1.580826        -0.076656        -0.274264
 C         2.543184         0.822701        -1.018328
 C         3.570076         0.920849         0.100589
 C         2.661905         0.901067         1.454527
 O         1.357306         0.528351         0.965502
 C         3.541779        -0.310042         0.993082
 O         4.759256        -0.666822         1.477129
 C         2.482992        -1.201584         0.212307
 H        -0.345452         0.542284        -0.532453
 H         0.233419        -0.285249        -1.945433
 H        -0.221767        -1.337580        -0.442665
 H         2.926579         0.330201        -2.004456
 H         2.126132         1.788282        -1.287617
 H         4.423051         1.680792         0.222062
 H         2.707125         1.518937         2.303518
 H         4.551150        -1.335362         2.235036
 H         3.011359        -1.821860        -0.470310
 H         2.132330        -1.904922         0.957891
