19
Iteration:   181
 C         0.273334        -0.634512        -0.635319
 C         1.517583         0.050703        -0.220160
 C         2.529412         0.750010        -1.176049
 C         3.531846         0.928523         0.016340
 C         2.753234         1.056617         1.262128
 O         1.357556         0.838736         0.998025
 C         3.586700        -0.322254         0.931250
 O         4.751420        -0.927488         1.504906
 C         2.366238        -1.091642         0.330507
 H        -0.334693        -0.685750         0.348006
 H        -0.325509        -0.166929        -1.404302
 H         0.523161        -1.687099        -1.079924
 H         2.837890         0.117209        -2.032343
 H         2.174563         1.658907        -1.662628
 H         4.423106         1.535434        -0.159663
 H         2.955055         1.889829         1.971548
 H         4.361406        -1.453282         2.271542
 H         2.684546        -1.716537        -0.586709
 H         1.798916        -1.670403         1.110155
