19
Iteration:  4752
 C         0.232612        -0.523782        -0.869789
 C         1.570632        -0.061324        -0.237157
 C         2.429461         0.958196        -0.971817
 C         3.605576         1.021146         0.058785
 C         2.734062         0.817608         1.408313
 O         1.379013         0.708342         1.042618
 C         3.563282        -0.318559         0.784792
 O         4.673379        -0.802771         1.590172
 C         2.541092        -1.212382         0.162609
 H        -0.406485        -0.678478         0.031747
 H        -0.375076         0.242934        -1.367057
 H         0.124889        -1.410938        -1.482587
 H         2.585732         0.844512        -2.073550
 H         1.815217         1.870716        -1.022586
 H         4.568740         1.544265        -0.077188
 H         2.960915         1.227219         2.348018
 H         4.221660        -1.354832         2.290757
 H         2.915153        -1.709849        -0.735587
 H         2.175349        -1.990316         0.863427
