19
Iteration:  1724
 C         0.211484        -0.453358        -0.737346
 C         1.583098        -0.067885        -0.218495
 C         2.463643         0.737371        -1.029656
 C         3.537519         1.047217        -0.009175
 C         2.773522         0.876504         1.318849
 O         1.407961         0.705535         1.039216
 C         3.554423        -0.293806         0.809644
 O         4.686385        -0.762719         1.494871
 C         2.447748        -1.202467         0.318676
 H        -0.418940        -0.892808         0.033639
 H        -0.360331         0.389599        -1.257151
 H         0.488844        -1.222096        -1.528768
 H         2.934081         0.313730        -1.953761
 H         1.824885         1.706937        -1.334775
 H         4.440631         1.698659        -0.194312
 H         3.041393         1.422490         2.225001
 H         4.477649        -1.439561         2.244379
 H         2.828549        -1.927118        -0.467891
 H         1.917914        -1.610996         1.184432
