19
Iteration:  3519
 C         0.172667        -0.361056        -0.889042
 C         1.575219        -0.111747        -0.293565
 C         2.575842         0.810688        -1.031846
 C         3.550851         0.947236         0.120734
 C         2.597948         0.852298         1.440802
 O         1.377838         0.581896         0.994054
 C         3.523723        -0.273161         0.989969
 O         4.761150        -0.713797         1.438385
 C         2.524459        -1.224242         0.264317
 H        -0.565411         0.453415        -0.548760
 H         0.227338        -0.209958        -2.012093
 H        -0.271781        -1.311073        -0.541854
 H         3.006941         0.423579        -1.889525
 H         1.966486         1.756881        -1.169970
 H         4.385620         1.687305         0.150064
 H         2.713486         1.735384         2.164413
 H         4.659353        -1.180978         2.278257
 H         3.027686        -1.791391        -0.585963
 H         1.920832        -1.895870         0.945772
