19
Iteration:  1867
 C         0.033553        -0.457398        -0.799983
 C         1.528120        -0.087224        -0.272798
 C         2.562023         0.824220        -1.043206
 C         3.561180         1.041598         0.067285
 C         2.731194         0.886833         1.368743
 O         1.381500         0.597587         1.026709
 C         3.605113        -0.225623         0.888209
 O         4.762942        -0.793452         1.411580
 C         2.484926        -1.224482         0.307102
 H        -0.565210        -0.627175         0.118216
 H        -0.240996         0.439952        -1.419631
 H        -0.023068        -1.366219        -1.322414
 H         2.989118         0.546709        -2.036272
 H         1.971253         1.741194        -1.256305
 H         4.462130         1.609747         0.102513
 H         2.916266         1.272686         2.382748
 H         4.715274        -0.722970         2.424863
 H         2.965906        -1.902584        -0.426914
 H         1.967296        -1.713732         1.155662
