19
Iteration:  1972
 C         0.203708        -0.528789        -0.844778
 C         1.515824        -0.123937        -0.192603
 C         2.532306         0.806247        -0.993635
 C         3.486750         1.030900         0.171737
 C         2.721329         0.930161         1.429051
 O         1.330212         0.777314         1.056760
 C         3.553815        -0.259439         0.888335
 O         4.730141        -0.819156         1.298368
 C         2.549753        -1.206910         0.249779
 H        -0.389339        -1.105454        -0.215866
 H        -0.428256         0.296594        -1.185274
 H         0.527653        -1.103347        -1.784941
 H         2.971127         0.279145        -1.767632
 H         1.961575         1.735369        -1.269298
 H         4.310724         1.674823         0.018657
 H         2.867198         1.430102         2.411302
 H         4.691153        -1.323446         2.191798
 H         3.013319        -1.746035        -0.596305
 H         2.283856        -1.997939         0.945813
