19
Iteration:  3975
 C         0.314649        -0.567657        -0.981654
 C         1.578631        -0.045049        -0.211067
 C         2.461359         0.933960        -0.981999
 C         3.533282         1.079892         0.199523
 C         2.708585         0.865369         1.475042
 O         1.314138         0.597685         1.058019
 C         3.527548        -0.260035         0.886731
 O         4.742742        -0.850749         1.297821
 C         2.451058        -1.182094         0.306975
 H        -0.445884         0.072445        -0.495075
 H         0.559241        -0.180940        -1.992141
 H         0.119698        -1.595508        -1.040441
 H         3.078157         0.737361        -1.989595
 H         1.949527         1.857228        -1.062130
 H         4.330589         1.833190         0.416753
 H         2.754885         1.439154         2.366534
 H         4.570364        -1.188731         2.239718
 H         2.833585        -1.742232        -0.553976
 H         1.975450        -1.838401         1.018118
