19
Iteration:  4307charge 0 multiplicity 1
 C         0.182764        -0.364173        -0.889613
 C         1.574330        -0.102262        -0.188248
 C         2.410612         0.917712        -0.940988
 C         3.539760         1.065269         0.086928
 C         2.764049         0.761162         1.352182
 O         1.318779         0.558321         1.022760
 C         3.629242        -0.335231         0.813374
 O         4.616761        -0.667281         1.651811
 C         2.648207        -1.262632         0.154921
 H        -0.279936        -1.305372        -0.681329
 H        -0.544045         0.364335        -0.717490
 H         0.328536        -0.316608        -1.984077
 H         2.698347         0.615182        -1.964414
 H         1.912945         1.932193        -1.049193
 H         4.481833         1.798547        -0.154126
 H         2.968488         1.233233         2.332520
 H         4.813071        -1.576087         1.589549
 H         2.925926        -1.877347        -0.694752
 H         2.274897        -2.039536         0.806074
