19
Iteration:  4577
 C         0.161269        -0.361123        -0.699168
 C         1.597271        -0.115085        -0.367241
 C         2.634999         0.773949        -1.034015
 C         3.535272         0.956654         0.112651
 C         2.689764         0.870017         1.343106
 O         1.309896         0.636747         1.015926
 C         3.571168        -0.292916         0.880077
 O         4.669222        -0.700219         1.552957
 C         2.537361        -1.217132         0.138299
 H        -0.042312        -0.382560        -1.806681
 H        -0.097936        -1.329764        -0.289465
 H        -0.524873         0.396061        -0.262278
 H         3.180834         0.140544        -1.857972
 H         2.072013         1.653454        -1.324829
 H         4.348547         1.651139         0.233594
 H         2.866333         1.678968         2.093283
 H         4.327831        -1.316225         2.283264
 H         2.925386        -1.797717        -0.670037
 H         2.092978        -1.807143         0.938418
