19
Iteration:   439charge 0 multiplicity 1
 C         0.111920        -0.565593        -0.715422
 C         1.570190        -0.118677        -0.260070
 C         2.492263         0.691585        -1.127549
 C         3.598689         0.906354        -0.083950
 C         2.807116         1.135695         1.235279
 O         1.442882         0.792429         1.011283
 C         3.525005        -0.166953         0.986063
 O         4.648776        -0.964880         1.502196
 C         2.492526        -1.079213         0.412420
 H        -0.294614        -1.099088         0.168022
 H        -0.551200         0.302137        -0.980089
 H         0.257858        -1.311326        -1.466754
 H         2.726838         0.218699        -2.000033
 H         1.982896         1.651479        -1.442129
 H         4.493961         1.449770        -0.248703
 H         3.014085         1.866099         1.979722
 H         4.427304        -1.361687         2.415206
 H         2.966741        -1.808561        -0.276871
 H         1.880430        -1.541073         1.197786
