19
Iteration:   924
 C         0.109446        -0.370564        -0.744427
 C         1.506975        -0.127375        -0.206982
 C         2.477676         0.623699        -1.068555
 C         3.598195         0.968690        -0.054822
 C         2.769882         0.885503         1.279498
 O         1.417829         0.774042         0.983528
 C         3.564556        -0.291518         0.884060
 O         4.780179        -0.686202         1.569387
 C         2.451969        -1.235937         0.345261
 H        -0.366693        -1.198937        -0.271141
 H        -0.599108         0.501331        -0.527052
 H         0.062755        -0.505303        -1.772368
 H         2.798339        -0.069758        -1.866989
 H         1.916869         1.477274        -1.548695
 H         4.401593         1.522742        -0.388823
 H         3.159478         1.470313         2.143977
 H         4.608089        -1.148571         2.379820
 H         2.718170        -1.881544        -0.469856
 H         1.934810        -1.753830         1.193080
