19
Iteration:  4252charge 0 multiplicity 1
 C         0.278336        -0.559870        -0.871566
 C         1.576177        -0.078366        -0.186923
 C         2.569744         0.919530        -0.897048
 C         3.549970         1.145826         0.257483
 C         2.561834         0.887292         1.439449
 O         1.255961         0.657192         1.008489
 C         3.568243        -0.301915         0.870137
 O         4.770485        -0.808791         1.303342
 C         2.502043        -1.180243         0.196257
 H        -0.536135        -0.575798        -0.228087
 H         0.144747         0.043970        -1.691735
 H         0.365285        -1.584390        -1.335807
 H         2.995515         0.282589        -1.723528
 H         2.094748         1.881721        -1.313188
 H         4.577607         1.801828         0.309960
 H         2.721847         0.932008         2.529753
 H         4.436084        -1.573620         1.804775
 H         2.926516        -1.449972        -0.767197
 H         2.110288        -2.069098         0.660120
