19
Iteration:  4621charge 0 multiplicity 1
 C         0.250766        -0.498316        -0.853543
 C         1.555077        -0.084250        -0.207975
 C         2.460145         0.854382        -0.988258
 C         3.541424         0.976514         0.088048
 C         2.707351         0.913154         1.338257
 O         1.339854         0.720162         1.041292
 C         3.595430        -0.324287         0.794524
 O         4.654819        -0.777941         1.601812
 C         2.559303        -1.206035         0.205227
 H         0.205370        -1.350020        -1.575420
 H        -0.450937        -0.559450        -0.021707
 H        -0.033686         0.390836        -1.446853
 H         2.917069         0.314248        -1.932725
 H         2.136658         1.864410        -1.006125
 H         4.319670         1.793766        -0.146908
 H         3.052491         1.467111         2.282037
 H         4.542808        -1.767927         1.783648
 H         2.899121        -1.698535        -0.684107
 H         1.999805        -1.858207         0.876728
