19
Iteration:  4406
 C         0.304454        -0.503608        -0.925239
 C         1.561529        -0.072408        -0.186132
 C         2.559568         0.787292        -1.016844
 C         3.569183         1.006102         0.027511
 C         2.742948         0.921682         1.376936
 O         1.256931         0.670691         1.106788
 C         3.502995        -0.259770         0.885833
 O         4.674794        -0.884464         1.435862
 C         2.496584        -1.136760         0.311940
 H         0.356980        -0.590638        -2.017561
 H        -0.153249        -1.387253        -0.570503
 H        -0.390559         0.290763        -0.836690
 H         2.853305         0.309142        -1.910661
 H         2.064218         1.755817        -1.174242
 H         4.332288         1.725315         0.054895
 H         2.894593         1.603069         2.198061
 H         4.798774        -0.497179         2.317247
 H         3.025279        -1.653292        -0.511607
 H         1.998422        -1.810442         1.009669
