19
Iteration:  3569
 C         0.301232        -0.590590        -0.946253
 C         1.492545        -0.004731        -0.259303
 C         2.521433         0.956808        -1.018536
 C         3.523777         1.034874         0.087578
 C         2.794079         0.879946         1.396201
 O         1.313802         0.667890         1.132680
 C         3.497835        -0.312997         0.895173
 O         4.669444        -0.872107         1.468973
 C         2.505015        -1.173569         0.239057
 H        -0.555012         0.052054        -0.892653
 H         0.499921        -0.676640        -2.063782
 H        -0.093848        -1.535910        -0.444003
 H         3.016226         0.384018        -1.942842
 H         2.001960         1.865836        -1.189005
 H         4.344187         1.622971         0.097697
 H         3.213430         1.483781         2.209544
 H         4.724266        -0.699999         2.401600
 H         3.041848        -1.673301        -0.569651
 H         1.976897        -1.791760         0.969452
