19
Iteration:  4081charge 0 multiplicity 1
 C         0.298144        -0.452134        -1.034428
 C         1.558946        -0.076323        -0.223713
 C         2.431545         1.013524        -0.902499
 C         3.489127         1.016228         0.150578
 C         2.652682         0.866795         1.535506
 O         1.324966         0.484766         1.107288
 C         3.561310        -0.286728         0.877354
 O         4.756588        -0.821475         1.339720
 C         2.555545        -1.146870         0.185742
 H        -0.141894         0.395760        -1.657570
 H         0.409891        -1.268815        -1.808058
 H        -0.443711        -0.728664        -0.189419
 H         2.702232         0.489524        -1.792778
 H         1.980375         2.049178        -1.107014
 H         4.463177         1.573999         0.215659
 H         2.844434         1.393421         2.425778
 H         4.591213        -0.969005         2.335955
 H         3.054806        -1.647052        -0.715245
 H         2.204854        -1.879074         1.004634
