19
Iteration:   414charge 0 multiplicity 1
 C         0.149494        -0.386656        -0.694863
 C         1.540119        -0.125601        -0.122910
 C         2.525178         0.648227        -1.103552
 C         3.553936         0.915923        -0.035816
 C         2.788038         0.941317         1.274737
 O         1.399006         0.856614         0.969103
 C         3.543064        -0.321405         0.809977
 O         4.713317        -0.707878         1.524712
 C         2.469213        -1.311915         0.368588
 H        -0.637574        -0.441668         0.032898
 H        -0.064887         0.418275        -1.535494
 H         0.313309        -1.337711        -1.159275
 H         2.872912         0.049904        -2.013813
 H         2.037494         1.481556        -1.535801
 H         4.381799         1.593316        -0.151187
 H         3.042310         1.667407         2.096981
 H         4.444201        -1.083429         2.416048
 H         2.589333        -2.080791        -0.398961
 H         1.938966        -1.716233         1.318356
