19
Iteration:  1813charge 0 multiplicity 1
 C         0.184440        -0.646732        -0.885604
 C         1.490630        -0.013415        -0.195774
 C         2.468164         0.765996        -0.978178
 C         3.575068         1.014722         0.018849
 C         2.826314         0.956710         1.354220
 O         1.432918         0.717265         1.124255
 C         3.595639        -0.208347         0.857984
 O         4.628631        -0.800217         1.517069
 C         2.418625        -1.131879         0.288475
 H        -0.281876        -1.543777        -0.436647
 H        -0.673278         0.101333        -0.711537
 H         0.389735        -0.679484        -1.892151
 H         2.951510         0.017017        -1.722489
 H         2.118924         1.662415        -1.508038
 H         4.447105         1.544079        -0.109850
 H         3.092533         1.637395         2.158642
 H         5.092625        -1.440912         0.866211
 H         2.792085        -1.801738        -0.520155
 H         1.915540        -1.762358         1.035532
