19
Iteration:  3154charge 0 multiplicity 1
 C         0.339063        -0.547791        -0.863184
 C         1.590292        -0.118292        -0.285721
 C         2.468242         0.897373        -0.981065
 C         3.560989         1.075635         0.138952
 C         2.698070         0.877760         1.443331
 O         1.347250         0.763419         0.962795
 C         3.503018        -0.318181         0.952941
 O         4.652523        -0.843101         1.425713
 C         2.532908        -1.217877         0.230460
 H        -0.232319         0.291161        -1.311661
 H         0.464975        -1.351218        -1.564479
 H        -0.481410        -0.999778        -0.173242
 H         2.849475         0.726442        -2.066116
 H         1.867821         1.762482        -1.089848
 H         4.300307         1.789872         0.307883
 H         2.930497         1.487721         2.359930
 H         4.404169        -1.265927         2.222451
 H         3.039593        -1.786069        -0.507191
 H         2.089185        -1.918908         0.900664
