19
Iteration:  1981charge 0 multiplicity 1
 C         0.165487        -0.510259        -0.897934
 C         1.495614        -0.146827        -0.186307
 C         2.479875         0.799896        -0.968100
 C         3.522427         1.054349         0.110048
 C         2.714411         0.965602         1.430787
 O         1.360727         0.741292         1.047642
 C         3.492542        -0.280660         0.978584
 O         4.813378        -0.863593         1.315754
 C         2.557228        -1.200757         0.237023
 H        -0.327406        -1.215587        -0.347101
 H        -0.397754         0.357418        -0.944029
 H         0.280555        -0.955697        -1.882408
 H         2.987806         0.330230        -1.848245
 H         1.981324         1.656317        -1.358591
 H         4.332394         1.691269         0.117382
 H         2.878925         1.545501         2.359102
 H         4.705493        -0.879359         2.327980
 H         3.022148        -1.562175        -0.646210
 H         2.159330        -1.945489         0.884228
