19
Iteration:  2100
 C         0.292492        -0.556597        -0.860153
 C         1.556242        -0.088256        -0.198299
 C         2.460537         0.906212        -0.988269
 C         3.488083         1.121702         0.108129
 C         2.737311         0.849998         1.392328
 O         1.350716         0.743015         1.033537
 C         3.546572        -0.267489         0.830420
 O         4.710049        -0.871055         1.363290
 C         2.467562        -1.234612         0.327482
 H         0.221012        -1.719413        -1.013591
 H        -0.565693        -0.299080        -0.260783
 H         0.044392        -0.177582        -1.913038
 H         3.156636         0.317848        -1.780881
 H         1.983510         1.704964        -1.452909
 H         4.374101         1.766246         0.099737
 H         3.061659         1.252490         2.373452
 H         4.827832        -0.770437         2.376336
 H         2.811723        -1.874354        -0.462037
 H         2.062307        -1.678360         1.266954
