19
Iteration:  4130charge 0 multiplicity 1
 C         0.255431        -0.508820        -0.892821
 C         1.582234        -0.093134        -0.244887
 C         2.494206         1.042989        -0.944555
 C         3.499550         1.121583         0.231386
 C         2.618026         0.728893         1.529616
 O         1.300050         0.605175         1.036812
 C         3.579621        -0.293824         0.872715
 O         4.755380        -0.781164         1.341676
 C         2.549082        -1.200167         0.154871
 H        -0.112387         0.121749        -1.662781
 H         0.501408        -1.395028        -1.420577
 H        -0.520431        -0.701739        -0.188033
 H         3.078353         0.805918        -1.932848
 H         1.960754         1.960128        -0.977371
 H         4.432292         1.553200         0.162215
 H         2.631733         1.281870         2.501505
 H         4.536495        -1.612742         1.715224
 H         3.087489        -1.646604        -0.644177
 H         2.116721        -1.876462         0.842860
