19
Iteration:   500
 C         0.101827        -0.377087        -0.743576
 C         1.523629        -0.129500        -0.201085
 C         2.575100         0.698641        -1.181231
 C         3.551541         0.804104        -0.119875
 C         2.801702         0.931147         1.226148
 O         1.395682         0.785234         1.025013
 C         3.506150        -0.337170         0.962292
 O         4.766885        -0.630669         1.556145
 C         2.458721        -1.249305         0.448970
 H        -0.328480        -1.275081        -0.352122
 H        -0.595537         0.501057        -0.388754
 H        -0.080803        -0.287806        -1.815640
 H         2.870271        -0.034362        -2.095671
 H         2.118493         1.589401        -1.535668
 H         4.399046         1.338802        -0.095628
 H         3.188036         1.711405         1.918407
 H         4.509452        -0.973118         2.451977
 H         2.732633        -1.948602        -0.315029
 H         1.907446        -1.936463         1.156906
