19
Iteration:  3210
 C         0.238247        -0.425679        -0.830019
 C         1.588151        -0.083956        -0.315007
 C         2.505058         0.900052        -0.987736
 C         3.507663         1.041745         0.141011
 C         2.718789         0.829187         1.418059
 O         1.344320         0.558502         0.984166
 C         3.535623        -0.251489         0.816107
 O         4.691828        -0.732938         1.580798
 C         2.555163        -1.229479         0.173758
 H        -0.107078         0.336775        -1.500499
 H         0.092737        -1.351770        -1.450131
 H        -0.434394        -0.330785         0.079506
 H         3.094605         0.522499        -1.873776
 H         1.934876         1.760977        -1.252872
 H         4.347630         1.580798        -0.061275
 H         2.869466         1.183639         2.420666
 H         4.448791        -1.388060         2.307779
 H         2.925543        -1.824237        -0.635824
 H         2.005715        -1.819962         0.859934
