19
Iteration:  4502
 C         0.289470        -0.510285        -0.893756
 C         1.555233        -0.078594        -0.221358
 C         2.534823         0.815913        -1.014838
 C         3.489741         1.073244         0.127494
 C         2.741720         0.948341         1.380276
 O         1.323733         0.743332         1.015550
 C         3.563534        -0.269009         0.871589
 O         4.669397        -0.892405         1.455350
 C         2.506836        -1.203547         0.276365
 H         0.146433        -0.136331        -1.925224
 H         0.193536        -1.577358        -0.881982
 H        -0.594923        -0.078089        -0.385796
 H         2.872398         0.124133        -1.833338
 H         1.978447         1.611086        -1.313686
 H         4.439403         1.491783        -0.046956
 H         2.909626         1.534456         2.315168
 H         4.581705        -1.044317         2.375141
 H         2.975818        -1.964404        -0.330464
 H         1.969063        -1.642242         1.107754
