19
Iteration:  3526
 C         0.223258        -0.340602        -0.879241
 C         1.576420        -0.164571        -0.288924
 C         2.579707         0.824951        -1.002793
 C         3.508967         1.005387         0.152463
 C         2.629619         0.834306         1.404205
 O         1.320348         0.651082         1.014606
 C         3.502102        -0.253792         0.957672
 O         4.767280        -0.768654         1.413631
 C         2.557603        -1.257219         0.306309
 H        -0.524350         0.276785        -0.542195
 H         0.189207        -0.355650        -1.993919
 H        -0.229838        -1.291505        -0.755234
 H         3.081749         0.423205        -1.999747
 H         2.028570         1.723731        -1.234848
 H         4.318085         1.592934         0.107573
 H         2.744499         1.662428         2.080615
 H         4.730917        -1.035164         2.300859
 H         3.018843        -1.774090        -0.569483
 H         1.849275        -1.883450         0.887597
