19
Iteration:  2680
 C         0.134816        -0.335469        -0.923809
 C         1.560481        -0.038107        -0.259150
 C         2.511588         0.804016        -1.112957
 C         3.507702         1.042406         0.099112
 C         2.704461         0.829043         1.356006
 O         1.355500         0.535819         1.059283
 C         3.586521        -0.347668         0.937320
 O         4.779642        -0.658701         1.585943
 C         2.478433        -1.256810         0.226333
 H        -0.303483         0.622489        -1.100539
 H         0.291201        -0.943525        -1.922988
 H        -0.465367        -1.035598        -0.283485
 H         3.072558         0.188018        -1.791803
 H         2.040872         1.610987        -1.651679
 H         4.390214         1.556834         0.095843
 H         2.947375         1.283568         2.331928
 H         4.609205        -0.711169         2.560877
 H         2.869077        -1.852514        -0.579931
 H         2.117338        -1.878897         1.073261
