19
Iteration:   958charge 0 multiplicity 1
 C         0.139874        -0.377411        -0.769512
 C         1.563515        -0.168552        -0.194181
 C         2.535897         0.711724        -1.060280
 C         3.581959         0.914406        -0.025069
 C         2.771732         0.940428         1.251550
 O         1.398135         0.761628         1.048461
 C         3.463398        -0.305722         1.006116
 O         4.742993        -0.663278         1.403004
 C         2.409047        -1.312199         0.370071
 H        -0.538201        -0.869173        -0.040748
 H        -0.194331         0.625176        -1.142505
 H         0.238708        -1.040349        -1.545680
 H         2.951838         0.094691        -1.969576
 H         2.008538         1.600314        -1.423136
 H         4.611624         1.349816        -0.172350
 H         3.081880         1.521469         2.150564
 H         4.933756        -0.462617         2.312426
 H         2.727550        -1.930339        -0.465533
 H         1.874032        -2.048383         1.055053
