19
Iteration:  3340charge 0 multiplicity 1
 C         0.204727        -0.424353        -0.813215
 C         1.547387        -0.086714        -0.253035
 C         2.521641         0.886637        -1.017941
 C         3.574269         1.089066         0.094867
 C         2.698351         0.817901         1.453349
 O         1.382106         0.620196         0.990975
 C         3.588295        -0.296973         0.792123
 O         4.564573        -0.703144         1.624602
 C         2.557023        -1.241589         0.155317
 H        -0.493096         0.218369        -0.333778
 H         0.441519        -0.510657        -1.947247
 H         0.041638        -1.514593        -0.569885
 H         2.929101         0.277011        -1.918013
 H         2.037255         1.734517        -1.408352
 H         4.528482         1.776508         0.038207
 H         2.765850         1.103219         2.525879
 H         4.714484        -1.610990         1.588964
 H         2.960175        -1.772830        -0.765837
 H         2.160258        -2.049120         0.936271
