19
Iteration:   411
 C         0.158747        -0.351202        -0.705288
 C         1.556924        -0.122220        -0.127377
 C         2.519879         0.626751        -1.106385
 C         3.526854         0.875240        -0.020595
 C         2.768447         0.915613         1.290823
 O         1.406497         0.877755         0.983153
 C         3.538781        -0.322778         0.786608
 O         4.716946        -0.672469         1.530670
 C         2.467923        -1.317752         0.350720
 H        -0.627492        -0.404945         0.076384
 H        -0.045820         0.317469        -1.513817
 H         0.285196        -1.412508        -1.192288
 H         2.879681         0.005373        -2.037057
 H         2.001984         1.500783        -1.529874
 H         4.444208         1.607872        -0.110880
 H         3.096555         1.573751         2.085511
 H         4.553117        -1.042498         2.431224
 H         2.577771        -2.133397        -0.382187
 H         1.951384        -1.688766         1.254659
