19
Iteration:   847
 C         0.148521        -0.526894        -0.678039
 C         1.534504        -0.083769        -0.207006
 C         2.487051         0.699659        -1.055147
 C         3.582856         1.006293         0.006467
 C         2.826522         0.932721         1.324909
 O         1.416206         0.870424         0.936602
 C         3.554420        -0.301498         0.868229
 O         4.707140        -0.765156         1.467212
 C         2.440157        -1.241807         0.343539
 H        -0.439625        -0.915308         0.098091
 H        -0.460921         0.247092        -1.202562
 H         0.237712        -1.308837        -1.363280
 H         2.915374         0.121060        -1.869931
 H         2.061385         1.616542        -1.548003
 H         4.490865         1.589384        -0.193267
 H         3.014884         1.369156         2.303191
 H         4.401607        -1.232131         2.296578
 H         2.600727        -1.951782        -0.426102
 H         1.861450        -1.781865         1.131128
