19
Iteration:  2156charge 0 multiplicity 1
 C         0.171512        -0.356125        -0.777768
 C         1.545551        -0.136220        -0.243396
 C         2.449825         0.820264        -1.033923
 C         3.488821         1.040568         0.074192
 C         2.705211         0.768123         1.426766
 O         1.394363         0.626474         0.978579
 C         3.567998        -0.255729         0.829319
 O         4.696161        -0.663703         1.601588
 C         2.597863        -1.255820         0.187354
 H         0.129370        -1.277837        -1.343075
 H        -0.562628        -0.428563         0.044437
 H        -0.119421         0.553945        -1.426118
 H         2.947672         0.480671        -2.047375
 H         1.828298         1.572852        -1.331229
 H         4.506398         1.612496        -0.002653
 H         2.908173         1.185226         2.383506
 H         5.018321        -1.547320         1.464887
 H         2.864342        -1.910432        -0.608311
 H         2.246978        -1.898318         0.965546
