19
Iteration:  3212
 C         0.241906        -0.408230        -0.823216
 C         1.584867        -0.083553        -0.305787
 C         2.488738         0.889135        -0.994166
 C         3.504386         1.033107         0.164985
 C         2.718050         0.839639         1.408720
 O         1.335504         0.560980         0.971807
 C         3.540921        -0.259516         0.813883
 O         4.696317        -0.726828         1.575476
 C         2.560151        -1.255833         0.175665
 H        -0.010725         0.384816        -1.471388
 H         0.107229        -1.349946        -1.464508
 H        -0.412534        -0.340771         0.031943
 H         3.087021         0.550784        -1.813416
 H         1.853978         1.836815        -1.247870
 H         4.445675         1.600553        -0.098047
 H         2.867701         1.170290         2.406341
 H         4.427993        -1.351716         2.330023
 H         2.957601        -1.843923        -0.649953
 H         2.037915        -1.817937         0.866140
