19
Iteration:  3145
 C         0.223813        -0.519518        -0.908866
 C         1.604449        -0.114840        -0.241798
 C         2.530642         0.985601        -1.017678
 C         3.512036         1.048106         0.126883
 C         2.733916         0.892395         1.417089
 O         1.343425         0.669190         0.976131
 C         3.488215        -0.312563         0.913929
 O         4.686453        -0.823933         1.451255
 C         2.529729        -1.227714         0.290042
 H        -0.246652         0.321987        -1.306217
 H         0.526697        -1.164616        -1.796726
 H        -0.369915        -1.150210        -0.159461
 H         2.937264         0.495016        -1.942537
 H         1.940015         1.947539        -1.196739
 H         4.371332         1.579362         0.241769
 H         2.859674         1.432042         2.382419
 H         4.555498        -1.140745         2.321088
 H         2.995089        -1.865998        -0.437435
 H         2.016951        -1.752580         1.023779
