19
Iteration:  3283charge 0 multiplicity 1
 C         0.315979        -0.501852        -0.887138
 C         1.607666        -0.168300        -0.264953
 C         2.565477         0.895310        -0.955646
 C         3.520972         1.071121         0.165745
 C         2.753532         0.859137         1.406246
 O         1.270961         0.715909         1.020238
 C         3.526790        -0.308753         0.798962
 O         4.648410        -0.803893         1.443497
 C         2.518015        -1.183717         0.273355
 H        -0.535861         0.192985        -0.564649
 H         0.335216        -0.436457        -1.906546
 H         0.042082        -1.563579        -0.646224
 H         2.975122         0.425894        -1.897103
 H         2.052722         1.809424        -1.164531
 H         4.190324         1.779478         0.031709
 H         2.815287         1.352842         2.354875
 H         4.412439        -1.254892         2.334614
 H         2.917087        -1.792138        -0.561510
 H         1.923679        -1.816621         1.085058
