19
Iteration:   783charge 0 multiplicity 1
 C         0.145998        -0.354584        -0.745029
 C         1.494984        -0.090601        -0.107993
 C         2.494518         0.645825        -1.059209
 C         3.624794         0.904153        -0.037284
 C         2.722039         0.849615         1.305116
 O         1.355820         0.821743         1.027317
 C         3.595016        -0.340621         0.807311
 O         4.732601        -0.671479         1.509309
 C         2.499462        -1.280500         0.317656
 H        -0.615215        -0.439796         0.021223
 H        -0.119614         0.511171        -1.490672
 H         0.243041        -1.271344        -1.232545
 H         2.759773        -0.059956        -1.924862
 H         2.017883         1.500125        -1.512411
 H         4.535369         1.545791        -0.300232
 H         3.107656         1.536055         2.037793
 H         4.603226        -0.750163         2.453338
 H         2.660418        -1.809304        -0.588010
 H         2.012150        -1.919202         1.112363
