19
Iteration:   151
 C         0.163225        -0.579762        -0.697262
 C         1.556364        -0.200329        -0.165733
 C         2.503826         0.665214        -1.103191
 C         3.593688         1.007975         0.010734
 C         2.788432         1.063526         1.317602
 O         1.429824         0.887033         0.979777
 C         3.553339        -0.235894         0.858131
 O         4.593077        -0.842867         1.449610
 C         2.520513        -1.170903         0.376373
 H        -0.526793        -0.314218         0.174956
 H        -0.062156         0.093420        -1.540388
 H         0.005518        -1.641628        -1.151215
 H         2.902171         0.301774        -2.183057
 H         1.919851         1.513734        -1.300349
 H         4.475064         1.405343        -0.225493
 H         3.072360         1.573852         2.306097
 H         4.126297        -1.318444         2.112668
 H         2.884587        -1.769881        -0.517460
 H         2.225516        -1.896751         1.219212
