19
Iteration:   798
 C         0.101054        -0.301544        -0.840520
 C         1.472473        -0.179578        -0.148557
 C         2.436000         0.595975        -1.045580
 C         3.459988         0.869585        -0.029223
 C         2.856830         0.943669         1.318717
 O         1.441456         0.762114         1.013745
 C         3.561315        -0.300423         0.898302
 O         4.830649        -0.699523         1.519068
 C         2.460289        -1.226454         0.336807
 H        -0.843370        -0.174075        -0.176342
 H         0.073755         0.538279        -1.517053
 H        -0.215067        -1.177036        -1.519888
 H         2.839094         0.094219        -1.955775
 H         1.964863         1.508795        -1.432168
 H         4.327247         1.398762        -0.139106
 H         2.969499         1.504341         2.258918
 H         4.685836        -0.445532         2.436066
 H         2.973818        -1.840268        -0.497921
 H         2.240482        -1.982050         1.068040
