19
Iteration:  3585charge 0 multiplicity 1
 C         0.239492        -0.546871        -0.872824
 C         1.607064        -0.069458        -0.231653
 C         2.432370         1.005373        -1.016684
 C         3.562500         0.997617         0.072063
 C         2.692590         0.929804         1.375231
 O         1.388740         0.645599         1.058158
 C         3.557177        -0.309544         0.920173
 O         4.664419        -0.862931         1.524679
 C         2.522569        -1.211872         0.155481
 H        -0.443582         0.313587        -1.071196
 H         0.533040        -1.026457        -1.783760
 H        -0.119284        -1.278195        -0.202025
 H         2.677742         0.659589        -1.969401
 H         2.048593         2.081418        -1.145729
 H         4.594515         1.576329         0.006265
 H         2.671046         1.393729         2.366573
 H         4.458680        -0.791945         2.503626
 H         2.896640        -1.790103        -0.731218
 H         2.006727        -1.961990         0.808120
