19
Iteration:  2477charge 0 multiplicity 1
 C         0.242882        -0.634924        -0.806048
 C         1.599957        -0.039112        -0.290837
 C         2.511346         0.958468        -1.066942
 C         3.533491         1.152754         0.222991
 C         2.686534         0.849030         1.374438
 O         1.326910         0.711058         0.977557
 C         3.594252        -0.264241         0.831152
 O         4.718664        -0.835371         1.597215
 C         2.465324        -1.212363         0.186336
 H        -0.305725         0.055787        -1.608781
 H         0.407277        -1.610982        -1.265264
 H        -0.371225        -0.908489         0.040028
 H         2.944012         0.517826        -1.961558
 H         2.020294         1.894538        -1.238617
 H         4.317039         1.823763         0.159713
 H         2.753500         1.345157         2.349095
 H         4.623509        -1.811330         1.553524
 H         2.699875        -1.910793        -0.590277
 H         2.117340        -1.869559         0.883887
