19
Iteration:  1827
 C         0.282557        -0.555350        -0.830310
 C         1.495787        -0.096819        -0.117134
 C         2.490050         0.801555        -1.065943
 C         3.526006         0.972473         0.027609
 C         2.785799         0.931136         1.388937
 O         1.379742         0.832435         1.103965
 C         3.437957        -0.309980         0.914663
 O         4.709417        -0.764311         1.430118
 C         2.480973        -1.164482         0.293969
 H        -0.070336        -1.531841        -0.335675
 H        -0.527259         0.100349        -1.069735
 H         0.650448        -0.928343        -1.791857
 H         2.806033         0.158143        -2.003675
 H         2.030562         1.689713        -1.393595
 H         4.537158         1.517132        -0.201851
 H         3.015096         1.476515         2.317619
 H         4.759556        -1.657323         1.130754
 H         2.825605        -1.660722        -0.587726
 H         2.091786        -1.938778         0.988446
