19
Iteration:  4846
 C         0.220750        -0.335686        -0.908171
 C         1.491465        -0.064378        -0.163598
 C         2.472499         0.904922        -0.968625
 C         3.552025         0.892962        -0.035115
 C         2.756619         0.814189         1.300665
 O         1.335901         0.601295         1.142360
 C         3.517870        -0.390871         0.881310
 O         4.706733        -0.675440         1.539207
 C         2.634848        -1.261519         0.192636
 H        -0.582103        -0.711747        -0.219451
 H        -0.224254         0.563141        -1.354725
 H         0.392559        -1.022749        -1.804548
 H         2.632352         0.703326        -1.996515
 H         2.074198         1.940055        -1.142449
 H         4.516279         1.436193         0.077645
 H         2.955224         1.371964         2.155699
 H         4.398851        -0.758073         2.434881
 H         2.935141        -1.944084        -0.601327
 H         2.007899        -1.869511         0.888466
