19
Iteration:   819
 C         0.150491        -0.268172        -0.783202
 C         1.548082        -0.121435        -0.199722
 C         2.490579         0.716656        -1.084766
 C         3.570192         0.963727        -0.090809
 C         2.748580         0.941220         1.223087
 O         1.393020         0.629563         1.062564
 C         3.548967        -0.286540         0.982949
 O         4.755585        -0.728858         1.439298
 C         2.489271        -1.315581         0.457850
 H        -0.662593        -0.330311         0.069001
 H        -0.156064         0.476470        -1.546231
 H         0.013453        -1.286429        -1.324017
 H         2.756558         0.139935        -2.073441
 H         2.114701         1.657764        -1.356222
 H         4.505102         1.381953        -0.150884
 H         2.839863         1.797012         1.919794
 H         4.690690        -0.556934         2.390807
 H         2.693175        -2.181011        -0.257191
 H         1.819681        -1.827903         1.160460
