19
Iteration:  3333
 C         0.257395        -0.475035        -0.811149
 C         1.564267        -0.101986        -0.277623
 C         2.507146         0.876373        -1.060290
 C         3.599276         1.044638         0.149352
 C         2.694372         0.831147         1.380144
 O         1.338814         0.646443         1.072123
 C         3.518242        -0.267710         0.821960
 O         4.620514        -0.736571         1.640186
 C         2.568736        -1.195140         0.104055
 H        -0.542654         0.104281        -0.357716
 H         0.048369        -0.435316        -1.956520
 H         0.079876        -1.491958        -0.523464
 H         2.922215         0.317408        -1.843213
 H         2.211966         1.911196        -1.408307
 H         4.520731         1.691892        -0.029084
 H         2.744083         1.271519         2.361281
 H         4.615907        -1.701926         1.569594
 H         2.889965        -1.718799        -0.789415
 H         2.183049        -1.805268         0.838988
