19
Iteration:  4020
 C         0.159665        -0.429720        -0.813597
 C         1.577622        -0.090476        -0.215607
 C         2.580282         0.993048        -1.014308
 C         3.546751         1.027609         0.092958
 C         2.695822         0.776087         1.392628
 O         1.362187         0.501924         1.081875
 C         3.522283        -0.287092         0.882351
 O         4.692516        -0.710334         1.596923
 C         2.526505        -1.190740        -0.002925
 H        -0.619744         0.130414        -0.252545
 H         0.101460        -0.365958        -1.918740
 H        -0.047149        -1.460449        -0.587513
 H         2.857081         0.390890        -2.004426
 H         2.096919         1.921746        -1.125997
 H         4.378447         1.868231         0.105854
 H         2.827761         1.369843         2.267479
 H         4.512210        -1.451817         2.238396
 H         3.031351        -1.309746        -0.952609
 H         2.218855        -2.102481         0.444828
