19
Iteration:  3399charge 0 multiplicity 1
 C         0.260161        -0.459317        -0.917348
 C         1.546121        -0.099557        -0.228715
 C         2.554148         0.860693        -0.980578
 C         3.507454         1.009975         0.168830
 C         2.697307         0.850937         1.390663
 O         1.335104         0.695878         1.063244
 C         3.524330        -0.342393         0.910435
 O         4.657028        -0.801348         1.472092
 C         2.515305        -1.225913         0.220483
 H        -0.005342         0.360211        -1.604023
 H         0.461275        -1.170059        -1.798571
 H        -0.538474        -0.728723        -0.255328
 H         2.968143         0.352936        -1.763785
 H         1.953636         1.749900        -1.323046
 H         4.272749         1.670299         0.245920
 H         2.873154         1.365881         2.326429
 H         5.381934        -0.113247         1.572989
 H         2.937123        -1.753509        -0.638245
 H         2.095097        -1.942676         0.842705
