19
Iteration:   283charge 0 multiplicity 1
 C         0.198861        -0.461947        -0.678207
 C         1.556369        -0.147763        -0.234710
 C         2.504920         0.717293        -1.056979
 C         3.570661         0.907030        -0.050907
 C         2.820902         0.942634         1.255071
 O         1.419355         0.905145         0.887705
 C         3.489453        -0.332246         0.882971
 O         4.704084        -0.727131         1.533408
 C         2.420518        -1.286125         0.418115
 H        -0.216627        -1.379765        -0.269673
 H        -0.407940         0.398192        -0.170556
 H         0.011184        -0.640390        -1.737319
 H         2.886653         0.131690        -1.948610
 H         1.992701         1.613296        -1.252336
 H         4.534361         1.516069        -0.216495
 H         3.065873         1.602206         2.024016
 H         4.430099        -1.057364         2.384645
 H         2.700589        -2.049017        -0.319587
 H         1.832214        -1.798617         1.262653
