19
Iteration:  3749
 C         0.157947        -0.444636        -0.774450
 C         1.568171        -0.088693        -0.314802
 C         2.539887         0.978652        -0.988675
 C         3.502473         0.997349         0.111816
 C         2.687738         0.815206         1.350246
 O         1.336064         0.630516         0.968591
 C         3.568970        -0.291904         0.862858
 O         4.703432        -0.747447         1.616886
 C         2.643496        -1.286526         0.112356
 H        -0.457832         0.408017        -0.357987
 H        -0.168871        -0.384343        -1.851700
 H        -0.071649        -1.380320        -0.288506
 H         2.896325         0.656863        -1.932052
 H         1.915267         2.005301        -1.219143
 H         4.356030         1.601143         0.148837
 H         2.837960         1.109542         2.436459
 H         4.436201        -1.283063         2.357355
 H         3.151697        -1.749256        -0.780068
 H         1.991451        -2.024106         0.731845
