19
Iteration:  4937
 C         0.289682        -0.493301        -0.943307
 C         1.518757        -0.077359        -0.118175
 C         2.507680         0.822983        -1.058607
 C         3.523016         0.983246         0.028591
 C         2.756290         0.841642         1.437541
 O         1.357564         0.824518         1.015419
 C         3.558815        -0.289320         0.865977
 O         4.773390        -0.769757         1.449528
 C         2.363711        -1.266804         0.363130
 H         0.235943        -1.566037        -0.709060
 H        -0.674016        -0.086268        -0.523908
 H         0.332478        -0.198654        -1.976370
 H         2.868369         0.302282        -1.901580
 H         2.035471         1.783418        -1.456717
 H         4.317186         1.763866         0.009953
 H         3.007851         1.462728         2.343386
 H         4.603764        -1.471425         2.060935
 H         2.698840        -1.998226        -0.388649
 H         1.805067        -1.870213         1.128744
