19
Iteration:  1381
 C         0.124483        -0.388172        -0.701118
 C         1.568419        -0.177822        -0.248334
 C         2.485636         0.753320        -1.087798
 C         3.641244         0.880856        -0.018236
 C         2.796492         0.969279         1.237421
 O         1.357214         0.744770         0.988313
 C         3.486847        -0.299947         0.968321
 O         4.762235        -0.655980         1.460656
 C         2.437847        -1.312066         0.385382
 H        -0.611807        -0.812171         0.085271
 H        -0.093701         0.693663        -1.042427
 H         0.067565        -1.076671        -1.523411
 H         2.642852         0.479331        -2.067895
 H         1.873406         1.725065        -1.009807
 H         4.639908         1.349499        -0.075498
 H         2.931998         1.715546         1.995281
 H         4.822585        -1.442772         2.024904
 H         2.923962        -2.015113        -0.324310
 H         1.942532        -1.895377         1.249087
