19
Iteration:   518
 C         0.122576        -0.178801        -0.723936
 C         1.535416        -0.195924        -0.179855
 C         2.445200         0.534138        -1.064950
 C         3.591314         0.848016        -0.097923
 C         2.717313         1.047929         1.241716
 O         1.407930         0.656682         0.919328
 C         3.558342        -0.283934         0.942021
 O         4.778222        -0.666148         1.547669
 C         2.473066        -1.288636         0.405893
 H        -0.516962        -1.035739        -0.394907
 H        -0.233488         0.715740        -0.419251
 H         0.297044        -0.315008        -1.876199
 H         2.661533        -0.079845        -1.897236
 H         2.065792         1.541909        -1.373421
 H         4.590730         1.473896        -0.326321
 H         2.913927         1.798808         2.050945
 H         4.479263        -0.729024         2.499641
 H         2.965045        -1.999656        -0.316653
 H         2.022294        -1.773726         1.229412
