19
Iteration:  2486
 C         0.250816        -0.673674        -0.847626
 C         1.513819        -0.014437        -0.245416
 C         2.580673         0.971895        -0.964317
 C         3.552838         1.062190         0.120694
 C         2.616308         0.900227         1.391381
 O         1.284402         0.704108         0.974591
 C         3.611902        -0.304318         0.881861
 O         4.734566        -0.837980         1.544129
 C         2.533386        -1.181252         0.180389
 H        -0.273440        -0.005674        -1.547148
 H         0.448895        -1.679679        -1.268538
 H        -0.342015        -0.590728         0.032179
 H         2.864376         0.636070        -2.050279
 H         2.048563         1.853346        -1.109296
 H         4.372042         1.809894         0.139577
 H         2.865407         1.503067         2.271181
 H         4.371024        -1.738381         1.668758
 H         2.794222        -1.730069        -0.707855
 H         2.169863        -1.796539         0.997941
