19
Iteration:  2593charge 0 multiplicity 1
 C         0.259543        -0.520548        -0.781899
 C         1.534672        -0.081337        -0.215270
 C         2.523375         0.887120        -1.021029
 C         3.592698         1.038480         0.082048
 C         2.673839         0.858787         1.381588
 O         1.328541         0.691300         0.972766
 C         3.508239        -0.267729         0.864954
 O         4.608334        -0.851313         1.565325
 C         2.611317        -1.196068         0.206175
 H        -0.517902         0.099389        -0.522579
 H         0.347650        -0.460166        -1.914063
 H         0.004329        -1.562549        -0.651723
 H         2.951108         0.325211        -1.873053
 H         1.968863         1.731951        -1.370056
 H         4.319361         1.679577        -0.217441
 H         2.863238         1.424192         2.280497
 H         4.949913        -0.330106         2.284290
 H         3.001031        -1.625383        -0.730371
 H         2.210848        -2.106259         0.838280
