19
Iteration:  1643
 C         0.119011        -0.386634        -0.688152
 C         1.547234        -0.143265        -0.217435
 C         2.489948         0.737573        -1.042243
 C         3.606035         0.952392        -0.050306
 C         2.772771         0.910526         1.304115
 O         1.395832         0.695078         0.999395
 C         3.525978        -0.316186         0.837716
 O         4.613389        -0.759854         1.561862
 C         2.526850        -1.240768         0.275190
 H        -0.435577        -0.486142         0.291994
 H        -0.135464         0.569661        -1.089995
 H         0.025064        -1.246577        -1.380680
 H         2.948799         0.293240        -1.926121
 H         2.154462         1.801631        -1.357064
 H         4.412490         1.560968        -0.236617
 H         3.099227         1.385606         2.226194
 H         5.194078         0.045556         1.733016
 H         2.924504        -1.929277        -0.455596
 H         2.143015        -1.886965         1.114922
