19
Iteration:  3962
 C         0.322583        -0.481449        -0.979394
 C         1.546390        -0.087118        -0.233815
 C         2.556189         0.990558        -0.919855
 C         3.460112         1.031202         0.212590
 C         2.620089         0.917012         1.449687
 O         1.303073         0.604838         1.113618
 C         3.525220        -0.338247         0.926501
 O         4.773271        -0.816447         1.276927
 C         2.519830        -1.171257         0.238060
 H        -0.664909        -0.052959        -0.825052
 H         0.357974        -0.374757        -2.070316
 H         0.264924        -1.567951        -0.792207
 H         2.841988         0.329682        -1.796816
 H         2.056943         1.895428        -1.399150
 H         4.377174         1.422590         0.096954
 H         2.849863         1.490456         2.400005
 H         4.817873        -1.131766         2.172114
 H         2.915438        -1.972013        -0.434111
 H         1.893682        -1.735902         1.002809
