19
Iteration:  2426charge 0 multiplicity 1
 C         0.170061        -0.371406        -0.916818
 C         1.541050        -0.127728        -0.173459
 C         2.480859         0.815756        -1.003867
 C         3.506211         0.965314         0.070122
 C         2.707554         0.885617         1.289945
 O         1.321878         0.600943         1.012275
 C         3.574904        -0.305033         0.948274
 O         4.739407        -0.764463         1.684296
 C         2.580711        -1.217029         0.158384
 H        -0.365665         0.583680        -0.717214
 H         0.273106        -0.444670        -1.976885
 H        -0.467789        -1.225367        -0.647477
 H         2.831742         0.290414        -1.862333
 H         1.867861         1.808905        -1.219230
 H         4.246884         1.660304        -0.064131
 H         2.836410         1.474714         2.187965
 H         5.432262        -0.169192         1.482328
 H         2.971595        -1.793442        -0.750290
 H         2.193267        -2.081423         0.891183
