19
Iteration:  3551charge 0 multiplicity 1
 C         0.327798        -0.506755        -0.941929
 C         1.523635        -0.040053        -0.159693
 C         2.493956         0.817335        -0.967015
 C         3.553980         1.055580         0.166837
 C         2.649054         0.889550         1.442467
 O         1.380774         0.692434         1.016128
 C         3.544825        -0.254463         0.827655
 O         4.703699        -0.867944         1.412436
 C         2.498153        -1.195818         0.272236
 H        -0.572993         0.068687        -0.767444
 H         0.466081        -0.460515        -2.053677
 H        -0.009236        -1.511819        -0.825492
 H         2.939899         0.264450        -1.765493
 H         1.891685         1.675140        -1.421366
 H         4.365664         1.779649         0.010593
 H         2.707782         1.340698         2.493105
 H         4.760994        -0.714912         2.359702
 H         2.628019        -1.796047        -0.680362
 H         1.915623        -1.779641         1.035292
