19
Iteration:  4697
 C         0.175771        -0.322933        -0.843455
 C         1.558810        -0.177447        -0.224049
 C         2.545169         0.805909        -1.011439
 C         3.479117         0.980065         0.130468
 C         2.637809         0.850375         1.431663
 O         1.360010         0.629487         0.994603
 C         3.529347        -0.250445         0.930005
 O         4.731603        -0.837681         1.427901
 C         2.596681        -1.199535         0.187949
 H        -0.335319        -1.305182        -0.695275
 H        -0.459554         0.444008        -0.420257
 H         0.169607         0.015649        -1.887337
 H         3.217675         0.248341        -1.761488
 H         2.065686         1.699628        -1.389065
 H         4.209563         1.871882         0.090411
 H         2.787811         1.472101         2.294671
 H         4.831340        -0.560312         2.326333
 H         3.133007        -1.711669        -0.606487
 H         2.178972        -1.843956         0.999223
