19
Iteration:   712charge 0 multiplicity 1
 C         0.217561        -0.519922        -0.701885
 C         1.525010        -0.089764        -0.136889
 C         2.520796         0.613166        -1.094381
 C         3.605875         0.983129        -0.061254
 C         2.789704         1.072325         1.312593
 O         1.386324         0.856942         1.023340
 C         3.537710        -0.282841         0.825028
 O         4.669878        -0.841572         1.518220
 C         2.425595        -1.188256         0.335564
 H         0.040805        -1.560894        -0.334103
 H        -0.426493         0.216400        -0.389819
 H         0.373671        -0.517233        -1.820249
 H         2.927987        -0.048405        -1.853406
 H         1.943040         1.482512        -1.676023
 H         4.447044         1.532154        -0.194290
 H         2.927474         1.882004         2.031227
 H         4.258218        -1.368864         2.195606
 H         2.700340        -1.863784        -0.549313
 H         1.982571        -1.802524         1.109408
