19
Iteration:  3777
 C         0.211183        -0.390254        -0.896224
 C         1.528044        -0.111353        -0.244455
 C         2.548819         0.872393        -0.998985
 C         3.507300         0.957188         0.119652
 C         2.735249         0.841673         1.437064
 O         1.334335         0.531830         1.087210
 C         3.587102        -0.256344         0.847681
 O         4.714339        -0.636790         1.573950
 C         2.475947        -1.264869         0.058290
 H        -0.365882         0.480823        -0.546168
 H         0.240225        -0.160251        -1.973044
 H        -0.130407        -1.328396        -0.431375
 H         2.943940         0.377557        -1.952209
 H         2.068461         1.727699        -1.227971
 H         4.418731         1.683675         0.193800
 H         2.939787         1.355903         2.316781
 H         4.569321        -1.396372         2.183594
 H         2.932789        -1.672099        -0.837240
 H         2.018080        -1.929206         0.750359
