19
Iteration:  3559charge 0 multiplicity 1
 C         0.272911        -0.533303        -0.951044
 C         1.555926        -0.079883        -0.197908
 C         2.506814         0.849900        -0.955969
 C         3.516470         1.083509         0.120918
 C         2.736713         0.828156         1.411802
 O         1.350479         0.698679         1.079519
 C         3.572761        -0.271137         0.886964
 O         4.673125        -0.868728         1.418535
 C         2.432719        -1.122162         0.238205
 H        -0.578505         0.057000        -0.866648
 H         0.671959        -0.599637        -2.006266
 H         0.224038        -1.576936        -0.693189
 H         2.852244         0.308620        -1.954725
 H         2.192196         1.811772        -1.314657
 H         4.347282         1.630480         0.081341
 H         2.824545         1.497982         2.289207
 H         4.643220        -0.608139         2.374614
 H         2.814354        -1.792742        -0.566404
 H         2.033652        -1.826687         0.982258
