19
Iteration:  2903charge 0 multiplicity 1
 C         0.417718        -0.604900        -0.836761
 C         1.611473        -0.097937        -0.194731
 C         2.512971         0.886522        -1.012833
 C         3.516900         1.103139         0.053679
 C         2.739497         0.859428         1.382642
 O         1.356065         0.787175         1.030663
 C         3.500454        -0.272181         0.864504
 O         4.581790        -0.843391         1.455997
 C         2.466607        -1.231157         0.229101
 H        -0.258052         0.311480        -1.069901
 H         0.811479        -1.027156        -1.698537
 H        -0.253962        -1.220623        -0.153257
 H         2.981616         0.410606        -1.930809
 H         1.945813         1.727529        -1.257436
 H         4.291178         1.790360         0.238232
 H         2.917056         1.324897         2.378087
 H         4.309678        -1.024666         2.357535
 H         2.704592        -2.006022        -0.529156
 H         1.895417        -1.855029         0.974398
