19
Iteration:  4733charge 0 multiplicity 1
 C         0.209977        -0.402820        -0.796788
 C         1.510994        -0.073499        -0.177310
 C         2.460033         0.953352        -0.946676
 C         3.562930         0.960256         0.029654
 C         2.788848         0.808748         1.289679
 O         1.409514         0.561559         1.035378
 C         3.596596        -0.345365         0.798882
 O         4.626605        -0.723676         1.621422
 C         2.505108        -1.230818         0.086598
 H        -0.454838        -1.038410        -0.257760
 H        -0.355013         0.531123        -1.052997
 H         0.562994        -0.957308        -1.645771
 H         2.992586         0.646801        -1.935353
 H         2.117506         1.934506        -1.082792
 H         4.272224         1.709490         0.152892
 H         2.993229         1.334316         2.221584
 H         4.412450        -0.658689         2.563859
 H         2.820795        -1.869463        -0.723401
 H         1.985723        -1.841003         0.770050
