19
Iteration:  1648
 C         0.123648        -0.405596        -0.685955
 C         1.547700        -0.153179        -0.215441
 C         2.542063         0.735208        -1.047049
 C         3.540237         0.979507        -0.009815
 C         2.794382         0.861024         1.291203
 O         1.416096         0.728096         1.029245
 C         3.535466        -0.272332         0.838774
 O         4.575491        -0.743285         1.524690
 C         2.509938        -1.271251         0.288707
 H        -0.506741        -0.439096         0.178549
 H        -0.297215         0.497432        -1.242137
 H         0.167111        -1.302799        -1.342658
 H         3.022401         0.271313        -1.933046
 H         2.253989         1.749324        -1.348369
 H         4.543935         1.536670        -0.244110
 H         3.138417         1.308285         2.224162
 H         5.201341        -0.054931         1.599426
 H         2.884517        -1.973549        -0.510389
 H         2.135967        -1.792344         1.159853
