19
Iteration:   555
 C         0.197323        -0.417170        -0.714432
 C         1.514895        -0.016282        -0.166472
 C         2.542858         0.667402        -1.134376
 C         3.559070         0.914944        -0.080420
 C         2.792864         0.946824         1.266415
 O         1.401286         0.760190         1.023442
 C         3.512932        -0.289424         0.876046
 O         4.753250        -0.725982         1.537531
 C         2.406928        -1.246204         0.373195
 H        -0.469737        -0.808570         0.039386
 H        -0.414107         0.325218        -1.366048
 H         0.376876        -1.214304        -1.429546
 H         2.715006        -0.271569        -1.853936
 H         2.144969         1.467225        -1.716215
 H         4.412263         1.472788        -0.222428
 H         2.999384         1.533119         2.152313
 H         4.528545        -0.871533         2.511027
 H         2.687663        -1.948492        -0.387342
 H         1.769453        -1.700899         1.184572
