19
Iteration:  4608charge 0 multiplicity 1
 C         0.169072        -0.365209        -0.763725
 C         1.560189        -0.107805        -0.252069
 C         2.508288         0.831072        -1.038116
 C         3.544727         1.041631         0.054572
 C         2.740571         0.824330         1.355378
 O         1.374314         0.648001         0.950449
 C         3.584005        -0.268020         0.912305
 O         4.647875        -0.778252         1.626746
 C         2.583354        -1.208615         0.181495
 H         0.337677        -1.190629        -1.489849
 H        -0.489421        -0.857434        -0.046780
 H        -0.441780         0.506998        -1.154666
 H         2.816114         0.467074        -2.032743
 H         1.800674         1.630775        -1.428468
 H         4.376095         1.679296         0.162909
 H         2.793007         1.550537         2.187276
 H         4.436063        -1.680302         1.775307
 H         2.997809        -1.780339        -0.662464
 H         2.278553        -1.964280         0.987684
