19
Iteration:   825
 C         0.189459        -0.334597        -0.727027
 C         1.556267        -0.117294        -0.188970
 C         2.556452         0.720325        -1.096947
 C         3.534387         0.921318        -0.081548
 C         2.739780         0.935467         1.229834
 O         1.372508         0.639961         1.049494
 C         3.535746        -0.289902         0.887178
 O         4.743204        -0.737167         1.441825
 C         2.451858        -1.244375         0.447791
 H        -0.528534        -0.351835         0.024000
 H        -0.104395         0.496747        -1.420807
 H         0.014219        -1.208345        -1.289017
 H         2.776956         0.286355        -2.052774
 H         2.102224         1.757029        -1.358477
 H         4.571952         1.382092        -0.007759
 H         2.797004         1.708972         1.974449
 H         4.636784        -0.662359         2.384144
 H         2.738208        -2.046429        -0.188236
 H         1.920365        -1.660898         1.351870
