19
Iteration:  2383charge 0 multiplicity 1
 C         0.267024        -0.473225        -0.838329
 C         1.539946        -0.109459        -0.239813
 C         2.594221         0.813402        -0.971231
 C         3.555339         1.041507         0.122186
 C         2.664155         0.951265         1.319612
 O         1.320897         0.595610         1.004118
 C         3.525281        -0.319317         0.854857
 O         4.713458        -0.745129         1.440360
 C         2.438989        -1.195975         0.315051
 H        -0.379063         0.185523        -0.348207
 H         0.326335        -0.316437        -1.869493
 H         0.145266        -1.540723        -0.669313
 H         3.044308         0.324451        -1.837879
 H         2.225913         1.875296        -1.324936
 H         4.421820         1.562468         0.118609
 H         2.852639         1.597092         2.189097
 H         4.648978        -0.659330         2.398683
 H         2.770578        -1.885361        -0.490340
 H         1.909090        -2.008508         0.898162
