19
Iteration:  2726charge 0 multiplicity 1
 C         0.136367        -0.480691        -0.894064
 C         1.541826        -0.110124        -0.243594
 C         2.482712         0.874294        -1.017086
 C         3.512272         0.992193         0.125410
 C         2.649123         0.885203         1.395970
 O         1.355051         0.717320         0.970891
 C         3.584791        -0.304918         0.956853
 O         4.776582        -0.753140         1.567996
 C         2.582104        -1.244299         0.178857
 H        -0.152281         0.306352        -1.648414
 H         0.288931        -1.491437        -1.251432
 H        -0.492193        -0.564345        -0.076484
 H         2.835890         0.378683        -1.990046
 H         2.084493         1.786326        -1.235424
 H         4.488302         1.664630         0.065727
 H         2.817040         1.572553         2.224922
 H         4.492837        -1.521621         2.037629
 H         3.215764        -1.618329        -0.651539
 H         1.984030        -2.032730         0.805665
