19
Iteration:  2570
 C         0.237688        -0.368666        -0.856914
 C         1.563943        -0.135023        -0.340218
 C         2.496205         0.829831        -1.030236
 C         3.491637         0.994058         0.136282
 C         2.721028         0.901191         1.382134
 O         1.371250         0.576449         1.022587
 C         3.444290        -0.321682         0.925615
 O         4.722966        -0.725193         1.583112
 C         2.563987        -1.280751         0.197551
 H        -0.176049         0.576194        -0.723696
 H         0.158570        -0.553569        -1.986435
 H        -0.432217        -1.164474        -0.415466
 H         2.874605         0.428344        -1.966560
 H         1.860232         1.722525        -1.214796
 H         4.374824         1.634776        -0.063426
 H         2.915560         1.590376         2.202006
 H         5.072195        -0.080438         2.219100
 H         3.155475        -1.834668        -0.563668
 H         2.001066        -2.133512         0.783203
