19
Iteration:  2211charge 0 multiplicity 1
 C         0.291017        -0.594124        -0.844065
 C         1.512156        -0.039922        -0.209294
 C         2.407987         0.881196        -0.990121
 C         3.521813         0.968072         0.063364
 C         2.731389         0.886570         1.363445
 O         1.370808         0.777808         0.981578
 C         3.535248        -0.281457         0.956160
 O         4.622970        -0.883392         1.525682
 C         2.592793        -1.198494         0.213361
 H         0.295534        -0.472294        -1.901979
 H         0.058748        -1.634224        -0.467161
 H        -0.500953         0.159940        -0.431147
 H         2.756651         0.390207        -1.940856
 H         1.927527         1.739121        -1.031035
 H         4.379568         1.693756        -0.042605
 H         3.000858         1.422675         2.278605
 H         5.358656        -0.307185         1.579248
 H         3.059745        -1.567111        -0.681975
 H         2.184876        -1.958771         0.819725
