19
Iteration:  3873
 C         0.200295        -0.486806        -0.860408
 C         1.554197        -0.081814        -0.211211
 C         2.460793         0.975711        -0.948810
 C         3.518964         1.107460         0.169517
 C         2.734249         0.824499         1.409141
 O         1.298448         0.622769         1.058676
 C         3.560487        -0.324417         0.810140
 O         4.697374        -0.833673         1.532765
 C         2.657845        -1.227286         0.017602
 H        -0.279033         0.198341        -1.606538
 H         0.386830        -1.507072        -1.264833
 H        -0.446864        -0.604596         0.114172
 H         2.844540         0.424836        -1.912165
 H         1.908050         2.040637        -1.104784
 H         4.390259         1.852386         0.167441
 H         2.968409         1.194027         2.373290
 H         4.388811        -0.936452         2.427495
 H         3.062341        -1.449900        -0.989882
 H         2.140212        -2.046510         0.628945
