19
Iteration:   594
 C         0.161423        -0.646639        -0.630740
 C         1.549153        -0.045411        -0.179617
 C         2.448512         0.879303        -1.129794
 C         3.621076         0.971051        -0.068897
 C         2.751347         1.017003         1.282537
 O         1.435987         0.965328         0.853527
 C         3.544355        -0.319574         0.951307
 O         4.637035        -0.892802         1.503231
 C         2.503329        -1.294881         0.393095
 H        -0.435672        -0.681245         0.295629
 H        -0.310953        -0.136078        -1.357260
 H         0.385176        -1.754754        -0.954977
 H         2.903593         0.433180        -1.882051
 H         2.010198         1.890011        -1.425489
 H         4.584630         1.450968        -0.238560
 H         2.865932         1.569564         2.245509
 H         4.344943        -1.423602         2.244872
 H         3.012055        -2.064626        -0.269342
 H         2.060825        -1.917758         1.136416
