19
Iteration:  2810
 C         0.156233        -0.313793        -0.897530
 C         1.499025        -0.112398        -0.195701
 C         2.553935         0.799658        -1.069673
 C         3.542555         0.908631         0.114754
 C         2.696957         0.889977         1.312441
 O         1.279963         0.594292         1.034387
 C         3.601876        -0.325225         0.891951
 O         4.772156        -0.661230         1.617872
 C         2.545526        -1.254695         0.190084
 H        -0.677219         0.339323        -0.721428
 H         0.215247        -0.435394        -2.066200
 H        -0.368156        -1.221121        -0.469533
 H         3.001716         0.191728        -1.891295
 H         2.314592         1.891585        -1.473578
 H         4.450398         1.654126         0.003616
 H         2.937238         1.542728         2.141712
 H         4.499436        -0.933036         2.553460
 H         3.037862        -1.838488        -0.570520
 H         2.139901        -1.985034         0.833910
