19
Iteration:  3490charge 0 multiplicity 1
 C         0.170039        -0.392116        -0.868192
 C         1.567991        -0.058762        -0.232186
 C         2.543034         0.844477        -1.008847
 C         3.530496         1.045334         0.058906
 C         2.656560         0.762384         1.366728
 O         1.350812         0.650811         1.073269
 C         3.577694        -0.383961         0.818044
 O         4.687879        -0.633031         1.637696
 C         2.540290        -1.284274         0.145322
 H        -0.350604         0.602580        -0.957954
 H         0.415279        -0.703435        -1.828142
 H        -0.264059        -1.156977        -0.136507
 H         3.110218         0.439663        -1.899802
 H         1.942853         1.727951        -1.304206
 H         4.551791         1.679363        -0.002061
 H         3.017283         1.294125         2.228527
 H         4.528560        -1.472521         2.012356
 H         2.831837        -1.819036        -0.718060
 H         2.100192        -2.026145         0.807170
