19
Iteration:  1101charge 0 multiplicity 1
 C         0.144770        -0.375970        -0.793368
 C         1.457532        -0.125868        -0.086479
 C         2.473580         0.611342        -1.010470
 C         3.564767         0.875377        -0.015348
 C         2.771777         0.982738         1.221912
 O         1.364329         0.809081         0.978838
 C         3.594027        -0.286424         0.901780
 O         4.772224        -0.753493         1.571614
 C         2.444085        -1.238345         0.361831
 H        -0.445054        -1.347418        -0.651858
 H        -0.393655         0.552392        -0.631241
 H         0.415646        -0.428441        -1.853917
 H         2.570196        -0.211608        -1.795362
 H         2.163387         1.504533        -1.425700
 H         4.460639         1.508636        -0.159564
 H         3.009501         1.548919         2.114380
 H         5.508765        -0.316379         1.179974
 H         2.591702        -1.711515        -0.618367
 H         2.064233        -2.058459         1.015047
