19
Iteration:  2994
 C         0.201503        -0.430566        -0.953141
 C         1.568456        -0.085146        -0.250187
 C         2.541222         0.871043        -1.028181
 C         3.491671         1.026578         0.101326
 C         2.691186         0.851611         1.385998
 O         1.373696         0.562699         1.033664
 C         3.533137        -0.291429         0.893470
 O         4.797770        -0.770274         1.525707
 C         2.451613        -1.169519         0.269258
 H        -0.054450         0.260212        -1.661881
 H         0.309224        -1.497920        -1.278906
 H        -0.519089        -0.322102        -0.136347
 H         2.983193         0.530862        -1.874158
 H         1.992936         1.823468        -1.303079
 H         4.357134         1.762722         0.208413
 H         2.889397         1.517094         2.247785
 H         4.519852        -1.072250         2.365235
 H         2.741317        -1.892563        -0.599696
 H         1.835019        -1.820599         0.986680
