19
Iteration:   720
 C         0.249821        -0.549207        -0.641998
 C         1.548586        -0.046916        -0.109680
 C         2.529444         0.690084        -1.098111
 C         3.535828         0.970995        -0.029974
 C         2.726351         1.094202         1.213742
 O         1.375259         0.885011         0.966598
 C         3.595988        -0.352583         0.827844
 O         4.643454        -0.889903         1.527512
 C         2.480495        -1.155750         0.364600
 H        -0.111337        -1.582906        -0.295435
 H        -0.652713         0.160617        -0.495420
 H         0.382175        -0.571143        -1.712597
 H         2.947282        -0.073753        -1.872509
 H         1.997711         1.509014        -1.491070
 H         4.464946         1.499062        -0.251618
 H         2.933947         1.709220         2.085039
 H         4.337240        -1.547726         2.125052
 H         2.704017        -1.715109        -0.564801
 H         2.239035        -1.864855         1.177822
