19
Iteration:  1038charge 0 multiplicity 1
 C         0.155181        -0.564123        -0.625404
 C         1.556840        -0.046695        -0.205739
 C         2.498371         0.785334        -1.106390
 C         3.587035         0.954491        -0.017716
 C         2.756645         0.951251         1.281301
 O         1.385814         0.862663         0.946404
 C         3.586590        -0.327679         0.883095
 O         4.682882        -0.738972         1.612191
 C         2.438501        -1.259064         0.272618
 H        -0.319840        -0.661042         0.341180
 H        -0.444367         0.155861        -1.110702
 H         0.155110        -1.510871        -1.298274
 H         2.690181         0.142444        -2.091821
 H         2.042551         1.735322        -1.390496
 H         4.444415         1.540516        -0.151835
 H         3.177252         1.463216         2.134307
 H         4.763661        -1.669072         1.550909
 H         2.847678        -1.751286        -0.711974
 H         2.133120        -2.089200         0.941719
