19
Iteration:   686charge 0 multiplicity 1
 C         0.062323        -0.382709        -0.806393
 C         1.499586        -0.102063        -0.208105
 C         2.541806         0.683954        -1.117882
 C         3.552802         0.852675        -0.030054
 C         2.805969         0.958500         1.244744
 O         1.439976         0.723366         1.006558
 C         3.480089        -0.368034         0.899972
 O         4.782864        -0.654062         1.505218
 C         2.440539        -1.210776         0.488009
 H        -0.248442        -1.406229        -0.524848
 H        -0.600504         0.549588        -0.470254
 H         0.253878        -0.376118        -1.849521
 H         2.982327         0.128156        -2.079744
 H         2.102814         1.527057        -1.502231
 H         4.586435         1.370594        -0.221690
 H         2.919849         1.567082         2.151626
 H         4.734596        -0.727812         2.471407
 H         2.744340        -1.953094        -0.226071
 H         1.903834        -1.721608         1.344230
