19
Iteration:  2542charge 0 multiplicity 1
 C         0.197102        -0.369939        -0.925129
 C         1.472323        -0.074627        -0.226296
 C         2.556534         0.812021        -1.014335
 C         3.574113         1.058089         0.136970
 C         2.658380         0.762952         1.385485
 O         1.293186         0.548437         1.016197
 C         3.591520        -0.275837         0.776946
 O         4.762961        -0.731828         1.554563
 C         2.554321        -1.225596         0.277980
 H        -0.108763         0.639483        -1.422421
 H         0.263619        -1.084385        -1.704904
 H        -0.600213        -0.687206        -0.323348
 H         2.799918         0.213607        -1.971109
 H         1.999729         1.675336        -1.271073
 H         4.243578         1.814943         0.202806
 H         2.844121         1.237108         2.350174
 H         4.928537        -0.247675         2.329122
 H         2.816500        -1.932313        -0.491441
 H         2.202492        -1.704913         1.157949
