19
Iteration:  4927
 C         0.248243        -0.568170        -0.861201
 C         1.535871         0.019767        -0.277815
 C         2.486896         0.821988        -0.990369
 C         3.543399         0.975874         0.122761
 C         2.781590         0.947927         1.361243
 O         1.334229         0.819478         0.996097
 C         3.512939        -0.343673         0.882010
 O         4.763538        -0.803800         1.437202
 C         2.453277        -1.231265         0.351315
 H         0.206303        -1.653223        -0.752187
 H        -0.624290        -0.071410        -0.373560
 H         0.181802        -0.445831        -1.931988
 H         2.920750         0.177429        -1.724269
 H         2.007717         1.773264        -1.299240
 H         4.519188         1.580433         0.102634
 H         2.935949         1.344439         2.387564
 H         4.402233        -1.529167         1.920194
 H         2.853382        -1.860782        -0.473890
 H         1.827264        -1.781118         1.081395
