19
Iteration:  2693
 C         0.240438        -0.291429        -0.850600
 C         1.563114        -0.168654        -0.309165
 C         2.547711         0.792325        -1.047311
 C         3.505708         0.991144         0.075059
 C         2.699849         0.774110         1.408106
 O         1.373254         0.544206         1.063226
 C         3.513229        -0.279497         0.825418
 O         4.710186        -0.587784         1.570053
 C         2.529317        -1.263328         0.235767
 H        -0.176372         0.649621        -1.268765
 H         0.265559        -0.960216        -1.700504
 H        -0.421941        -0.548307        -0.096587
 H         2.911230         0.215441        -1.966259
 H         2.125225         1.665158        -1.377101
 H         4.376820         1.734938         0.054656
 H         2.791476         1.401383         2.312257
 H         4.396200        -1.059345         2.345359
 H         2.928483        -1.969237        -0.529948
 H         1.818316        -1.847146         0.976206
