19
Iteration:  1600charge 0 multiplicity 1
 C         0.089016        -0.452934        -0.722801
 C         1.566362        -0.116512        -0.178981
 C         2.453831         0.718557        -1.083343
 C         3.586881         0.980714        -0.078834
 C         2.854826         0.955719         1.258039
 O         1.439684         0.766456         1.047609
 C         3.590733        -0.276859         0.841123
 O         4.641743        -0.775403         1.562184
 C         2.520016        -1.236480         0.301519
 H        -0.378566        -1.342944        -0.202635
 H        -0.591144         0.288324        -0.377105
 H         0.090596        -0.539006        -1.841010
 H         2.674647         0.034269        -1.878999
 H         1.815022         1.601445        -1.563394
 H         4.439511         1.537360        -0.227663
 H         3.033927         1.488415         2.193159
 H         4.293445        -0.826784         2.522804
 H         2.892184        -1.802436        -0.558552
 H         2.034955        -1.915010         1.062056
