19
Iteration:  2667
 C         0.158912        -0.414594        -0.933027
 C         1.475005        -0.142557        -0.200703
 C         2.574984         0.792940        -1.011796
 C         3.526137         1.011586         0.090954
 C         2.729767         0.881698         1.377322
 O         1.325919         0.649085         1.014743
 C         3.554373        -0.292060         0.899981
 O         4.790515        -0.757799         1.565222
 C         2.525129        -1.228519         0.225940
 H        -0.517800         0.420318        -0.916669
 H         0.373246        -0.625980        -2.072849
 H        -0.485386        -1.292797        -0.427096
 H         2.898380         0.249844        -1.839440
 H         2.178274         1.826026        -1.341950
 H         4.294239         1.698934         0.007350
 H         2.811632         1.514273         2.247233
 H         4.734475        -0.443683         2.496157
 H         2.910376        -1.753049        -0.624610
 H         1.949913        -1.919023         0.740035
