19
Iteration:   107charge 0 multiplicity 1
 C        -0.006922        -0.331121        -0.809480
 C         1.479979        -0.155803        -0.221118
 C         2.532622         0.665426        -1.098388
 C         3.597014         0.749754        -0.048216
 C         2.796411         0.884885         1.323573
 O         1.384757         0.738891         1.083095
 C         3.596731        -0.311193         0.886506
 O         4.851239        -0.537305         1.566951
 C         2.392911        -1.260166         0.303265
 H        -0.658982        -0.520268         0.105529
 H        -0.379217         0.536193        -1.319795
 H        -0.043420        -1.079743        -1.682276
 H         2.933359         0.077240        -2.073159
 H         2.197402         1.573614        -1.485983
 H         4.571632         1.099708        -0.207818
 H         3.092438         1.587720         2.104393
 H         4.555740        -0.509996         2.465612
 H         2.891198        -1.788948        -0.544091
 H         1.943035        -1.856383         1.134234
