19
Iteration:  3540charge 0 multiplicity 1
 C         0.289707        -0.448991        -0.933480
 C         1.579141        -0.113388        -0.212168
 C         2.522183         0.833647        -0.986388
 C         3.485478         1.073017         0.157167
 C         2.684910         0.943211         1.411788
 O         1.252359         0.704151         0.993432
 C         3.540286        -0.342995         0.895728
 O         4.744804        -0.837934         1.386703
 C         2.516349        -1.253992         0.286662
 H        -0.398584         0.317977        -0.504896
 H         0.413414        -0.124320        -2.001945
 H        -0.065715        -1.408630        -0.662103
 H         3.031917         0.263990        -1.735016
 H         1.975591         1.751703        -1.379328
 H         4.411268         1.697900         0.143473
 H         2.899430         1.237366         2.502444
 H         4.709062        -0.792109         2.416633
 H         2.999056        -1.930901        -0.519304
 H         2.186400        -1.917508         1.146847
