19
Iteration:  2175charge 0 multiplicity 1
 C         0.181123        -0.436648        -0.711600
 C         1.565366        -0.072085        -0.241873
 C         2.550128         0.841296        -1.029038
 C         3.544677         1.089106         0.088580
 C         2.716928         0.822658         1.297805
 O         1.342604         0.556779         1.034175
 C         3.590943        -0.310266         0.765899
 O         4.679936        -0.696210         1.583978
 C         2.548375        -1.209887         0.171643
 H         0.060433        -1.149686        -1.646447
 H        -0.397109        -0.885863         0.101147
 H        -0.378760         0.546271        -0.895138
 H         2.907452         0.373478        -1.934095
 H         2.246718         1.783077        -1.469158
 H         4.224829         1.967931         0.056318
 H         2.880183         1.277372         2.253257
 H         4.277688        -1.319577         2.167569
 H         2.918523        -1.884460        -0.603466
 H         2.071881        -1.924559         0.910045
