19
Iteration:  4865charge 0 multiplicity 1
 C         0.151849        -0.388389        -0.788581
 C         1.540480        -0.107822        -0.241764
 C         2.448711         0.860106        -1.010644
 C         3.555492         1.047246         0.042261
 C         2.795242         0.837104         1.385653
 O         1.451435         0.609570         1.019432
 C         3.600455        -0.319823         0.784874
 O         4.661260        -0.746682         1.678126
 C         2.469045        -1.268118         0.115163
 H        -0.393418        -1.080109        -0.186721
 H        -0.440579         0.525633        -0.882708
 H         0.285313        -0.612037        -1.866286
 H         2.826902         0.413760        -2.062429
 H         1.886552         1.710964        -1.287423
 H         4.441442         1.784295        -0.109484
 H         3.049043         1.345870         2.320564
 H         4.312862        -0.790838         2.553397
 H         2.891521        -1.667128        -0.826713
 H         2.144900        -2.122163         0.676304
