19
Iteration:  1470charge 0 multiplicity 1
 C         0.154665        -0.437896        -0.640598
 C         1.524521        -0.108717        -0.240868
 C         2.415206         0.811198        -1.059984
 C         3.585933         0.866591        -0.049689
 C         2.746813         0.920544         1.265772
 O         1.365582         0.800085         0.925011
 C         3.562078        -0.346625         0.886979
 O         4.723554        -0.807478         1.572006
 C         2.575261        -1.273144         0.303197
 H        -0.528200        -0.378712         0.281178
 H        -0.001693         0.408031        -1.322683
 H        -0.073904        -1.433004        -1.216350
 H         2.572844         0.599989        -2.042156
 H         1.983051         1.887191        -0.931681
 H         4.448249         1.544672        -0.354514
 H         2.957458         1.552646         2.154174
 H         4.732748        -0.320381         2.389018
 H         3.002982        -1.655931        -0.645968
 H         2.246790        -2.034280         1.081507
