19
Iteration:   694charge 0 multiplicity 1
 C         0.094694        -0.436541        -0.797736
 C         1.531786        -0.087976        -0.233208
 C         2.550795         0.654479        -1.115459
 C         3.547896         0.889866        -0.055732
 C         2.815627         0.971627         1.264901
 O         1.471199         0.739838         1.041475
 C         3.541826        -0.294196         0.959556
 O         4.685551        -0.685669         1.478748
 C         2.400915        -1.197781         0.437497
 H        -0.256633        -1.385233        -0.487639
 H        -0.711526         0.307630        -0.518147
 H         0.135591        -0.382108        -1.924948
 H         2.851892        -0.088858        -1.831271
 H         2.126799         1.583244        -1.538170
 H         4.484469         1.470484        -0.263616
 H         3.155560         1.459261         2.181644
 H         4.653925        -0.924205         2.395263
 H         2.851562        -1.918247        -0.226066
 H         1.939894        -1.733580         1.296562
