19
Iteration:  3498
 C         0.205566        -0.350457        -0.857177
 C         1.520857        -0.101410        -0.262475
 C         2.548282         0.854720        -1.020750
 C         3.556978         1.006554         0.112939
 C         2.733899         0.824046         1.339402
 O         1.292640         0.579492         1.037478
 C         3.526340        -0.325353         0.850744
 O         4.743289        -0.635747         1.616189
 C         2.546773        -1.265437         0.188126
 H        -0.554291         0.501525        -0.776853
 H         0.191125        -0.624472        -1.944704
 H        -0.358567        -1.167823        -0.324818
 H         2.960201         0.317509        -1.793917
 H         2.126085         1.847067        -1.358579
 H         4.549019         1.478356        -0.054782
 H         2.963484         1.196683         2.395899
 H         4.619316        -1.471278         2.061737
 H         2.919052        -1.764947        -0.713810
 H         1.885079        -1.877611         0.774217
