19
Iteration:  1108
 C         0.100364        -0.398711        -0.843503
 C         1.460046        -0.086860        -0.080132
 C         2.456031         0.588921        -1.047929
 C         3.603971         0.879514        -0.058100
 C         2.773915         0.971092         1.316284
 O         1.361423         0.810117         0.966573
 C         3.584870        -0.324817         0.884349
 O         4.786339        -0.770955         1.573008
 C         2.457378        -1.206090         0.395692
 H        -0.316139        -1.333761        -0.409206
 H        -0.636713         0.468481        -0.601350
 H         0.363524        -0.465694        -1.863996
 H         2.809195        -0.001165        -1.823874
 H         2.149225         1.638178        -1.514887
 H         4.535010         1.599887        -0.148325
 H         2.926803         1.581373         2.175709
 H         5.421527        -0.213007         1.143537
 H         2.641219        -1.763001        -0.514116
 H         2.040174        -1.973982         1.059724
