19
Iteration:  1193charge 0 multiplicity 1
 C         0.180392        -0.438654        -0.697731
 C         1.508201        -0.048693        -0.173115
 C         2.456931         0.740460        -1.059132
 C         3.557931         0.998986        -0.081210
 C         2.829406         0.942502         1.269198
 O         1.457249         0.720493         1.043072
 C         3.523491        -0.338435         0.831158
 O         4.633026        -0.710324         1.684451
 C         2.448466        -1.271992         0.243404
 H        -0.514842        -0.665154         0.064441
 H        -0.357156         0.147180        -1.523817
 H         0.205822        -1.541359        -0.981143
 H         2.780762         0.169299        -1.982094
 H         2.198440         1.808263        -1.358930
 H         4.607038         1.491274        -0.253017
 H         3.055486         1.572800         2.091224
 H         5.301743        -1.184057         1.082161
 H         2.898788        -1.750104        -0.696371
 H         1.857077        -1.970577         0.866887
