19
Iteration:   182
 C         0.282286        -0.632367        -0.637722
 C         1.517580         0.045833        -0.225352
 C         2.528892         0.751087        -1.185319
 C         3.533393         0.927938         0.021096
 C         2.753324         1.051006         1.262425
 O         1.359501         0.842228         1.002543
 C         3.583622        -0.320112         0.922765
 O         4.752808        -0.920867         1.507169
 C         2.358714        -1.092464         0.330036
 H        -0.327602        -0.689506         0.358609
 H        -0.345382        -0.121408        -1.379144
 H         0.517863        -1.714758        -1.079865
 H         2.847549         0.101420        -2.076942
 H         2.172341         1.661044        -1.614950
 H         4.390245         1.482032        -0.150316
 H         2.948838         1.879655         2.014010
 H         4.379170        -1.450722         2.286903
 H         2.679426        -1.739023        -0.579351
 H         1.789470        -1.670141         1.136559
