19
Iteration:  3814
 C         0.303197        -0.438613        -0.999657
 C         1.604406        -0.140021        -0.223993
 C         2.467139         0.888412        -0.944027
 C         3.473448         1.039485         0.167495
 C         2.648005         0.852862         1.517786
 O         1.313527         0.607352         1.046044
 C         3.555286        -0.245418         0.899595
 O         4.782436        -0.860528         1.315548
 C         2.524071        -1.168787         0.282050
 H        -0.307947         0.528669        -1.135721
 H         0.465221        -1.016112        -1.950242
 H        -0.414246        -1.082756        -0.543784
 H         2.872052         0.572242        -1.849372
 H         2.032220         1.939518        -1.139142
 H         4.210233         1.751524         0.235586
 H         2.757691         1.543922         2.440583
 H         4.682606        -0.720868         2.331046
 H         2.881481        -1.817067        -0.542536
 H         1.920656        -1.869177         0.902128
