19
Iteration:  1473
 C         0.110858        -0.412668        -0.648886
 C         1.522391        -0.119940        -0.233910
 C         2.423700         0.814587        -1.052106
 C         3.598361         0.854146        -0.034506
 C         2.754793         0.921773         1.267243
 O         1.355716         0.800065         0.943476
 C         3.557474        -0.327950         0.860964
 O         4.744635        -0.793806         1.590742
 C         2.589767        -1.295042         0.288470
 H        -0.511777        -0.497343         0.194641
 H        -0.058482         0.384330        -1.300187
 H         0.002286        -1.432092        -1.233452
 H         2.623411         0.582183        -2.149613
 H         2.075642         1.833735        -0.958054
 H         4.347494         1.467286        -0.325616
 H         3.008376         1.618523         2.097505
 H         4.728505        -0.269729         2.396251
 H         2.887544        -1.783235        -0.698304
 H         2.144315        -1.985327         0.987849
