19
Iteration:  2439charge 0 multiplicity 1
 C         0.233923        -0.397146        -0.846066
 C         1.535680        -0.160163        -0.228547
 C         2.512783         0.829352        -1.021708
 C         3.589574         0.987730         0.058704
 C         2.642922         0.973113         1.349754
 O         1.305464         0.578082         1.077245
 C         3.566978        -0.291671         0.860687
 O         4.625261        -0.747392         1.659649
 C         2.586261        -1.254575         0.159854
 H        -0.326978         0.465544        -0.913263
 H         0.492497        -0.769196        -1.855149
 H        -0.368364        -1.128688        -0.239516
 H         2.882157         0.465614        -2.050261
 H         2.006442         1.825740        -1.276699
 H         4.459655         1.661548         0.188782
 H         2.842377         1.599161         2.198675
 H         5.476816        -0.774126         1.077254
 H         3.097107        -1.585166        -0.772483
 H         2.058104        -2.054925         0.802022
