19
Iteration:  1129
 C         0.146354        -0.508429        -0.724594
 C         1.562647        -0.122022        -0.304438
 C         2.541720         0.747751        -1.123747
 C         3.511207         0.940856        -0.009863
 C         2.793307         0.936303         1.301582
 O         1.441325         0.803920         1.024990
 C         3.526678        -0.268873         0.912373
 O         4.647870        -0.799737         1.499610
 C         2.422944        -1.224455         0.452870
 H        -0.244015        -1.362724        -0.180577
 H        -0.448501         0.446411        -0.526757
 H         0.234732        -0.762543        -1.766265
 H         2.753212         0.096633        -1.934838
 H         2.191045         1.830328        -1.529089
 H         4.547408         1.457509        -0.051308
 H         3.139704         1.513689         2.124631
 H         5.444761        -0.294809         1.224473
 H         2.659446        -2.131724        -0.111510
 H         1.772035        -1.630629         1.236732
