19
Iteration:  4945
 C         0.292721        -0.432060        -0.927957
 C         1.487705        -0.121255        -0.102052
 C         2.530485         0.771311        -1.057784
 C         3.542493         0.999796         0.012412
 C         2.708330         0.817373         1.404537
 O         1.392728         0.759139         1.057398
 C         3.555410        -0.326003         0.896541
 O         4.752506        -0.727349         1.439175
 C         2.378592        -1.214142         0.364624
 H        -0.006059        -1.519611        -1.173332
 H        -0.658830         0.051826        -0.615784
 H         0.563250        -0.181893        -1.969941
 H         2.812369         0.369414        -2.036187
 H         1.977837         1.758299        -1.407563
 H         4.341942         1.614886        -0.107627
 H         3.020068         1.576637         2.182941
 H         4.673416        -1.316803         2.166523
 H         2.507151        -1.889541        -0.462442
 H         2.037843        -1.666466         1.327358
