19
Iteration:  3528charge 0 multiplicity 1
 C         0.234588        -0.348662        -0.881537
 C         1.584062        -0.173085        -0.278936
 C         2.577815         0.824285        -0.996169
 C         3.490754         1.024254         0.157733
 C         2.651593         0.840703         1.389561
 O         1.290932         0.668759         1.014214
 C         3.505530        -0.266426         0.948904
 O         4.767089        -0.783174         1.403980
 C         2.555633        -1.256288         0.309996
 H        -0.507495         0.309209        -0.496914
 H         0.211692        -0.372692        -2.028156
 H        -0.167612        -1.301381        -0.795825
 H         3.040323         0.443590        -1.944237
 H         2.053646         1.767233        -1.299615
 H         4.342977         1.582056         0.115079
 H         2.785782         1.658531         2.178286
 H         4.723834        -0.992100         2.352408
 H         3.050710        -1.827580        -0.571389
 H         1.877374        -1.933937         0.932634
