19
Iteration:  2863
 C         0.171033        -0.468266        -0.909409
 C         1.509058        -0.123276        -0.234883
 C         2.580690         0.836834        -1.036132
 C         3.638258         0.952886         0.113202
 C         2.653480         0.909280         1.316052
 O         1.297878         0.671642         0.990024
 C         3.572491        -0.292900         0.973113
 O         4.764096        -0.769849         1.548261
 C         2.486071        -1.185630         0.254915
 H        -0.564005         0.155747        -0.549612
 H         0.034436        -0.389559        -2.023005
 H        -0.182749        -1.509915        -0.637663
 H         2.882016         0.427995        -1.950707
 H         2.140674         1.918304        -1.195797
 H         4.397002         1.864790         0.002961
 H         2.803487         1.623202         2.102510
 H         4.685264        -1.319195         2.378965
 H         2.925081        -1.726544        -0.647258
 H         2.094923        -1.780264         1.113457
