19
Iteration:  3097charge 0 multiplicity 1
 C         0.182925        -0.290855        -0.887538
 C         1.557455        -0.170430        -0.247365
 C         2.473433         0.778215        -0.997150
 C         3.471296         1.022692         0.093047
 C         2.703987         0.849930         1.404738
 O         1.379554         0.664362         0.995245
 C         3.481349        -0.405070         0.870320
 O         4.727284        -0.618653         1.559437
 C         2.610626        -1.340812         0.229428
 H        -0.447578         0.713154        -0.641296
 H         0.397249        -0.035997        -1.909447
 H        -0.221608        -1.303774        -0.671946
 H         3.038370         0.213715        -1.869760
 H         2.091374         1.700472        -1.268823
 H         4.571410         1.479474        -0.116078
 H         2.661175         1.319093         2.365648
 H         4.511178        -1.059738         2.450211
 H         3.105154        -1.582018        -0.716858
 H         2.346463        -2.256698         0.847540
