19
Iteration:  2451charge 0 multiplicity 1
 C         0.256823        -0.472126        -0.841754
 C         1.621628        -0.072589        -0.240679
 C         2.532284         0.873639        -1.025715
 C         3.512381         1.046850         0.104782
 C         2.715956         0.840839         1.370383
 O         1.362075         0.593482         1.031859
 C         3.502045        -0.245337         0.893693
 O         4.563221        -0.729886         1.609436
 C         2.569172        -1.208418         0.186057
 H        -0.267330         0.377096        -1.082403
 H         0.229521        -1.171722        -1.719721
 H        -0.275936        -1.071497        -0.060673
 H         2.865860         0.283169        -1.983922
 H         2.048394         1.837880        -1.226901
 H         4.438597         1.686785        -0.104660
 H         2.826984         1.398313         2.284636
 H         5.089980        -1.268459         1.004242
 H         2.983582        -1.773727        -0.672514
 H         2.263856        -2.022882         0.879224
