19
Iteration:  4803
 C         0.208370        -0.454861        -0.865539
 C         1.590080        -0.067672        -0.257087
 C         2.619572         0.841819        -0.975347
 C         3.471919         1.061482         0.229696
 C         2.628143         0.882818         1.506554
 O         1.268189         0.720879         1.037627
 C         3.543309        -0.323268         0.850694
 O         4.763879        -0.798321         1.286374
 C         2.532132        -1.239977         0.287307
 H        -0.771357        -0.442266        -0.316547
 H        -0.007933         0.214867        -1.718781
 H         0.329417        -1.526060        -1.277985
 H         3.179857         0.294460        -1.683836
 H         2.297267         1.785846        -1.673295
 H         4.429041         1.656432         0.051386
 H         2.903088         1.435879         2.366695
 H         4.546442        -1.511714         1.876220
 H         2.928012        -2.040232        -0.373292
 H         2.066185        -1.783231         1.176791
