19
Iteration:  1302
 C         0.141466        -0.579877        -0.676228
 C         1.563088        -0.116817        -0.271275
 C         2.464926         0.880074        -1.098770
 C         3.610133         0.923567        -0.137863
 C         2.763251         0.960903         1.264380
 O         1.386210         0.810190         0.957207
 C         3.560069        -0.256928         0.924426
 O         4.725990        -0.968781         1.595799
 C         2.437547        -1.180773         0.416717
 H        -0.067203        -1.483103        -0.114518
 H        -0.618882         0.259778        -0.366322
 H         0.079253        -0.667487        -1.778569
 H         2.711307         0.578000        -2.156016
 H         2.098890         1.882415        -1.141243
 H         4.247820         1.793242        -0.311639
 H         3.011943         1.633227         2.117222
 H         5.332504        -0.294649         1.902919
 H         2.664243        -1.916458        -0.396301
 H         1.800300        -1.576431         1.265653
