19
Iteration:  4263
 C         0.246269        -0.508034        -0.882688
 C         1.546686        -0.028881        -0.250325
 C         2.583362         0.897971        -0.930455
 C         3.474775         1.073328         0.235298
 C         2.627303         0.806551         1.449551
 O         1.282738         0.620140         1.031029
 C         3.478060        -0.245235         0.908746
 O         4.774057        -0.798143         1.373924
 C         2.582683        -1.152230         0.172706
 H        -0.457967        -0.644897        -0.111251
 H        -0.237825         0.156951        -1.526506
 H         0.416048        -1.493451        -1.386193
 H         3.098884         0.364035        -1.779519
 H         2.095398         1.816320        -1.403018
 H         4.482803         1.719863         0.223502
 H         2.756935         1.349179         2.422094
 H         4.750640        -1.723912         1.518800
 H         3.091874        -1.584648        -0.678580
 H         2.158837        -1.984762         0.738236
