19
Iteration:  1478
 C         0.061507        -0.399293        -0.682014
 C         1.522689        -0.136826        -0.203337
 C         2.454737         0.803154        -1.050570
 C         3.585584         0.838161        -0.024011
 C         2.772116         0.926419         1.268871
 O         1.357990         0.788074         0.978310
 C         3.568472        -0.310330         0.836596
 O         4.762933        -0.764342         1.612792
 C         2.585885        -1.314116         0.238260
 H        -0.619022        -0.645695         0.202108
 H        -0.341695         0.455393        -1.358014
 H         0.164919        -1.278054        -1.226636
 H         2.704287         0.525013        -2.106634
 H         2.071837         1.858712        -1.088670
 H         4.502268         1.524894        -0.252995
 H         3.066441         1.663813         1.984555
 H         4.749089        -0.220875         2.423551
 H         2.743407        -1.954113        -0.616416
 H         1.954942        -1.957594         0.903585
