19
Iteration:  1453charge 0 multiplicity 1
 C         0.171726        -0.464751        -0.664332
 C         1.597883        -0.153254        -0.180086
 C         2.431964         0.811401        -1.091138
 C         3.549799         1.018883        -0.038331
 C         2.806831         0.955736         1.291924
 O         1.456386         0.733687         0.961034
 C         3.500593        -0.237023         0.913393
 O         4.626227        -0.875161         1.489998
 C         2.528117        -1.207682         0.299717
 H        -0.438659        -0.394921         0.191213
 H        -0.237813         0.107915        -1.504508
 H         0.184214        -1.532148        -0.842275
 H         2.833259         0.219959        -2.032805
 H         1.823443         1.611399        -1.388843
 H         4.448011         1.520944        -0.051226
 H         2.978908         1.609066         2.147462
 H         4.761423        -0.635890         2.389739
 H         2.909210        -1.848761        -0.508884
 H         1.914552        -1.830866         0.932102
