19
Iteration:  1416charge 0 multiplicity 1
 C         0.177782        -0.545881        -0.720616
 C         1.451589        -0.018443        -0.136319
 C         2.503488         0.693428        -1.120960
 C         3.626606         1.009988         0.007621
 C         2.776682         0.894047         1.350597
 O         1.356962         0.813096         1.018293
 C         3.560348        -0.283286         0.901806
 O         4.739326        -0.800175         1.388993
 C         2.450398        -1.151936         0.360970
 H        -0.765790        -0.560572        -0.109871
 H        -0.093940        -0.049693        -1.632619
 H         0.467339        -1.577321        -1.162847
 H         2.786446         0.033814        -1.903867
 H         2.111426         1.657804        -1.640843
 H         4.620116         1.625298        -0.023979
 H         3.128841         1.514575         2.174550
 H         4.495848        -1.213604         2.256836
 H         2.662468        -1.832072        -0.497490
 H         2.023583        -1.728116         1.232462
