19
Iteration:   472charge 0 multiplicity 1
 C         0.211200        -0.592396        -0.651702
 C         1.499981        -0.036249        -0.127064
 C         2.535564         0.672152        -1.038345
 C         3.635265         0.979362        -0.062870
 C         2.844739         0.994849         1.229185
 O         1.435032         0.918055         0.877422
 C         3.499113        -0.351211         0.884125
 O         4.659896        -0.796316         1.516107
 C         2.385295        -1.152188         0.363437
 H         0.079585        -1.587210        -0.151543
 H        -0.737101        -0.061547        -0.467948
 H         0.263510        -0.811088        -1.730733
 H         2.846820         0.034203        -1.747412
 H         1.937027         1.554071        -1.439209
 H         4.675394         1.404700        -0.252585
 H         3.051362         1.232969         2.229233
 H         4.261925        -1.063102         2.343704
 H         2.423053        -1.878975        -0.505641
 H         1.890579        -1.685042         1.184948
