19
Iteration:  3020
 C         0.298078        -0.584513        -0.932835
 C         1.545224        -0.085722        -0.164877
 C         2.471912         0.907389        -0.974724
 C         3.567066         0.986843         0.095044
 C         2.698266         0.932524         1.408903
 O         1.305608         0.777960         1.003139
 C         3.481744        -0.270717         0.921873
 O         4.675070        -0.888160         1.433523
 C         2.585201        -1.208209         0.258051
 H        -0.249556         0.233997        -1.572560
 H         0.741954        -1.407189        -1.519618
 H        -0.334186        -0.835439        -0.101194
 H         2.842372         0.628521        -2.039605
 H         1.990056         1.877958        -0.985999
 H         4.458828         1.523257         0.103689
 H         2.857084         1.574799         2.272447
 H         4.514564        -1.065981         2.333063
 H         3.018870        -1.555676        -0.669242
 H         2.232725        -2.099235         0.782371
