19
Iteration:  2947
 C         0.128222        -0.344597        -0.876633
 C         1.568334        -0.120235        -0.266755
 C         2.535688         0.813331        -1.070827
 C         3.535026         0.935185         0.149021
 C         2.675832         0.851170         1.396950
 O         1.338109         0.599052         1.011229
 C         3.551936        -0.329034         0.971457
 O         4.780090        -0.640631         1.586116
 C         2.516889        -1.257674         0.141707
 H         0.025865         0.536567        -1.557439
 H         0.170634        -1.317796        -1.232292
 H        -0.631120        -0.134970        -0.010118
 H         2.751293         0.359400        -2.113626
 H         1.961045         1.692157        -1.309736
 H         4.353515         1.728173        -0.048133
 H         2.891613         1.594125         2.136012
 H         4.637239        -1.270466         2.315554
 H         3.160279        -1.629656        -0.683367
 H         2.184814        -2.229236         0.540132
