19
Iteration:  4858
 C         0.155686        -0.343313        -0.854338
 C         1.527663        -0.082596        -0.205469
 C         2.438283         0.912762        -1.057078
 C         3.593188         0.985707         0.056474
 C         2.783296         0.812013         1.291652
 O         1.427874         0.605892         1.088533
 C         3.578721        -0.346447         0.825021
 O         4.652046        -0.703197         1.635425
 C         2.506342        -1.320524         0.158087
 H        -0.434597        -1.084799        -0.236915
 H        -0.360963         0.608475        -1.011364
 H         0.347459        -0.924253        -1.812800
 H         2.706700         0.387898        -1.894568
 H         1.911621         1.926133        -1.098047
 H         4.310281         1.769673         0.024377
 H         3.111619         1.293739         2.165900
 H         4.446367        -0.781574         2.579431
 H         2.975767        -1.631819        -0.778687
 H         2.249498        -2.178242         0.837381
