19
Iteration:  2296
 C         0.124005        -0.406032        -0.813179
 C         1.569828        -0.094689        -0.247967
 C         2.478419         0.787506        -1.017247
 C         3.544929         0.999474         0.100093
 C         2.703974         0.826598         1.375409
 O         1.355402         0.677311         0.995386
 C         3.602478        -0.287132         0.897695
 O         4.716551        -0.762358         1.601306
 C         2.572020        -1.284731         0.146819
 H        -0.161628         0.370947        -1.539188
 H         0.064586        -1.301302        -1.440964
 H        -0.752290        -0.465796        -0.059626
 H         2.784811         0.439263        -2.047616
 H         1.964001         1.789041        -1.310476
 H         4.377999         1.681494        -0.074124
 H         2.722685         1.382678         2.331733
 H         5.031536         0.100919         2.051641
 H         3.086171        -1.831898        -0.662774
 H         2.123713        -2.061825         0.838025
