19
Iteration:  2176
 C         0.182176        -0.445049        -0.713541
 C         1.556855        -0.066798        -0.244681
 C         2.554663         0.846845        -1.029980
 C         3.543758         1.086200         0.088810
 C         2.716818         0.834255         1.292631
 O         1.343126         0.555168         1.040512
 C         3.585636        -0.305314         0.772852
 O         4.679399        -0.704322         1.580668
 C         2.549343        -1.215080         0.165588
 H         0.069854        -1.130997        -1.643735
 H        -0.388558        -0.920819         0.103263
 H        -0.390466         0.560719        -0.872260
 H         2.925861         0.381621        -1.958465
 H         2.249231         1.734370        -1.449557
 H         4.259428         1.981905         0.056386
 H         2.892945         1.280141         2.241862
 H         4.301069        -1.288105         2.235201
 H         2.907488        -1.879008        -0.598209
 H         2.084008        -1.911228         0.893531
