19
Iteration:  2859
 C         0.184004        -0.440475        -0.898623
 C         1.543971        -0.116103        -0.256788
 C         2.572958         0.841766        -1.037712
 C         3.610536         0.986835         0.102586
 C         2.639707         0.886372         1.307783
 O         1.312310         0.666738         0.981865
 C         3.542870        -0.327056         0.942664
 O         4.765750        -0.738318         1.563305
 C         2.507556        -1.208275         0.281668
 H        -0.650228         0.188820        -0.423719
 H         0.092439        -0.284861        -1.923013
 H        -0.243147        -1.400712        -0.610544
 H         2.948617         0.404072        -1.991601
 H         2.152403         1.764031        -1.195215
 H         4.304457         1.709582         0.073421
 H         2.865812         1.585788         2.147903
 H         4.608551        -1.319630         2.299660
 H         2.899269        -1.833465        -0.568243
 H         2.095570        -1.901852         1.096347
