19
Iteration:  3748charge 0 multiplicity 1
 C         0.172935        -0.448627        -0.771072
 C         1.567874        -0.091263        -0.312167
 C         2.536924         0.976850        -0.988601
 C         3.500734         0.994024         0.123890
 C         2.692332         0.820753         1.359120
 O         1.326123         0.640096         0.965999
 C         3.568075        -0.289710         0.855696
 O         4.705431        -0.755695         1.613623
 C         2.640105        -1.287794         0.106578
 H        -0.454717         0.418628        -0.348493
 H        -0.204739        -0.429256        -1.860324
 H        -0.118682        -1.375881        -0.318942
 H         2.912379         0.679000        -1.956297
 H         1.924537         1.991402        -1.210297
 H         4.382357         1.656072         0.133965
 H         2.850015         1.126717         2.408989
 H         4.390149        -1.248429         2.342630
 H         3.154596        -1.774348        -0.774615
 H         2.054045        -2.043126         0.753405
