19
Iteration:   609charge 0 multiplicity 1
 C         0.222249        -0.588560        -0.593454
 C         1.569862        -0.068816        -0.220428
 C         2.505741         0.722459        -1.109929
 C         3.531852         0.993051        -0.000029
 C         2.806413         0.996686         1.266036
 O         1.398558         0.857350         0.902515
 C         3.574024        -0.244134         0.851050
 O         4.658114        -0.905046         1.555379
 C         2.449034        -1.143886         0.333425
 H        -0.446232        -0.609260         0.255140
 H        -0.280381         0.129391        -1.360117
 H         0.307515        -1.603158        -0.969399
 H         2.778081         0.160292        -2.102280
 H         1.964679         1.559527        -1.432024
 H         4.415641         1.598952        -0.122392
 H         3.042840         1.686829         2.059241
 H         4.268124        -1.496976         2.270648
 H         2.737603        -1.745938        -0.505335
 H         1.939352        -1.668125         1.182883
