19
Iteration:   437charge 0 multiplicity 1
 C         0.110024        -0.564515        -0.722699
 C         1.567806        -0.121403        -0.243101
 C         2.489376         0.698962        -1.108058
 C         3.606831         0.924737        -0.082041
 C         2.813952         1.121610         1.213669
 O         1.442992         0.775106         1.001524
 C         3.524197        -0.158863         0.970429
 O         4.654065        -0.957191         1.512765
 C         2.476972        -1.076593         0.422399
 H        -0.297215        -1.010932         0.171630
 H        -0.562632         0.368295        -1.061413
 H         0.185692        -1.302569        -1.446183
 H         2.755065         0.170094        -2.032607
 H         2.010278         1.604098        -1.445675
 H         4.469726         1.405968        -0.263404
 H         3.019594         1.827997         2.034316
 H         4.507492        -1.381272         2.376737
 H         2.976962        -1.765360        -0.269113
 H         1.855537        -1.644037         1.223418
