19
Iteration:  4218charge 0 multiplicity 1
 C         0.277913        -0.496163        -0.984066
 C         1.548108        -0.094340        -0.309097
 C         2.407360         1.069752        -0.966126
 C         3.521537         1.057819         0.136666
 C         2.728483         0.805288         1.444974
 O         1.352391         0.531381         1.108767
 C         3.533123        -0.300927         0.939981
 O         4.749109        -0.826830         1.407480
 C         2.530752        -1.173853         0.242127
 H        -0.522262        -0.114967        -0.430887
 H         0.223120        -0.048511        -1.930435
 H         0.294775        -1.593359        -1.007379
 H         2.694034         0.692683        -2.034704
 H         1.853921         1.989468        -1.091577
 H         4.369667         1.765224         0.169497
 H         2.736506         1.157669         2.468382
 H         4.824941        -0.815833         2.337518
 H         3.000930        -1.634243        -0.614763
 H         1.873410        -1.846419         0.749147
