19
Iteration:   143charge 0 multiplicity 1
 C         0.203200        -0.480388        -0.695870
 C         1.605875        -0.210105        -0.221987
 C         2.467241         0.698548        -1.095647
 C         3.536353         0.978811        -0.035216
 C         2.804554         1.011603         1.324434
 O         1.426458         0.829228         0.976849
 C         3.528319        -0.274692         0.795779
 O         4.648387        -0.760757         1.511035
 C         2.481992        -1.240178         0.406903
 H        -0.479120        -0.326304         0.079704
 H        -0.032075         0.269229        -1.481244
 H         0.020822        -1.457862        -0.964594
 H         2.931875         0.256832        -1.966693
 H         1.801763         1.570492        -1.295463
 H         4.516617         1.416999        -0.204060
 H         3.090497         1.620550         2.216716
 H         4.313474        -1.261824         2.250863
 H         2.682488        -1.899558        -0.388825
 H         1.969434        -1.837977         1.129182
