19
Iteration:  2112
 C         0.259154        -0.531242        -0.889095
 C         1.534573        -0.034751        -0.198009
 C         2.493322         0.863197        -1.026555
 C         3.516635         1.011307         0.086389
 C         2.718531         0.856417         1.433359
 O         1.308111         0.694485         1.077758
 C         3.565939        -0.302169         0.855909
 O         4.730896        -0.850023         1.393447
 C         2.502819        -1.155412         0.318743
 H         0.365318        -1.615434        -1.019805
 H        -0.615969        -0.325752        -0.311595
 H         0.229310         0.002644        -1.894205
 H         2.740249         0.242569        -2.010767
 H         2.011937         1.809067        -1.235396
 H         4.489652         1.602969        -0.101722
 H         2.815087         1.291709         2.429252
 H         5.064114        -0.190132         1.965241
 H         2.791572        -1.857577        -0.442783
 H         1.929060        -1.719901         1.042542
