19
Iteration:  4181
 C         0.214445        -0.350247        -0.875275
 C         1.574706        -0.102618        -0.226145
 C         2.396456         0.937242        -0.997452
 C         3.491107         1.088924         0.146500
 C         2.703497         0.693450         1.412002
 O         1.358645         0.536637         1.100705
 C         3.596483        -0.358372         0.830461
 O         4.678608        -0.703242         1.542528
 C         2.661319        -1.233896         0.027296
 H        -0.392862         0.578212        -0.514486
 H         0.191462        -0.414054        -2.038250
 H        -0.407031        -1.157850        -0.466366
 H         2.941855         0.490385        -1.852662
 H         1.881940         1.846637        -1.267101
 H         4.141854         1.962298         0.311345
 H         2.938535         0.888475         2.491596
 H         4.451570        -0.706551         2.483632
 H         3.175739        -1.497308        -0.947691
 H         2.364554        -2.182787         0.628254
