19
Iteration:  2633
 C         0.343446        -0.620064        -0.787721
 C         1.615460        -0.049611        -0.252963
 C         2.494667         0.928859        -1.029994
 C         3.479485         1.115642         0.023879
 C         2.751778         0.961627         1.377782
 O         1.373168         0.697160         0.972047
 C         3.504257        -0.274620         0.956895
 O         4.592843        -0.953600         1.484661
 C         2.473844        -1.215660         0.274381
 H        -0.517922         0.030460        -0.457874
 H         0.361628        -0.607761        -1.954467
 H         0.228255        -1.793151        -0.728612
 H         2.938097         0.514086        -1.907014
 H         2.050402         1.988611        -1.270750
 H         4.511331         1.649092         0.022483
 H         2.793307         1.487613         2.324667
 H         4.775344        -0.481001         2.363768
 H         3.041666        -1.791875        -0.461125
 H         1.939368        -1.808536         0.940073
