19
Iteration:   953charge 0 multiplicity 1
 C         0.161949        -0.374127        -0.735129
 C         1.530061        -0.135232        -0.145480
 C         2.595456         0.693470        -1.111643
 C         3.585412         0.883539         0.001702
 C         2.762470         0.959574         1.244518
 O         1.383649         0.742367         1.057622
 C         3.397727        -0.317017         0.988103
 O         4.754968        -0.640871         1.410960
 C         2.429982        -1.348142         0.353386
 H        -0.602759        -0.850970        -0.127154
 H        -0.226690         0.626260        -1.029876
 H         0.257534        -0.945359        -1.797583
 H         2.755183         0.085668        -1.938423
 H         2.067968         1.664387        -1.396752
 H         4.515148         1.321217        -0.263306
 H         3.208380         1.564772         2.017336
 H         5.039846        -0.467257         2.349697
 H         2.887292        -1.791321        -0.569499
 H         1.861513        -1.932839         1.042619
