19
Iteration:   986charge 0 multiplicity 1
 C         0.133235        -0.492375        -0.717900
 C         1.549498        -0.076509        -0.168178
 C         2.486919         0.762956        -1.104202
 C         3.542824         1.032165        -0.039629
 C         2.748217         0.899176         1.265010
 O         1.348865         0.778431         0.971609
 C         3.647833        -0.272312         0.867144
 O         4.756531        -0.853325         1.502678
 C         2.477751        -1.174129         0.405035
 H        -0.642654        -0.656228        -0.005282
 H        -0.101786         0.257141        -1.506739
 H         0.363627        -1.515310        -1.217978
 H         2.773821         0.208819        -1.937022
 H         2.016548         1.739677        -1.463394
 H         4.295060         1.720260        -0.150051
 H         3.112665         1.477646         2.121674
 H         4.425268        -1.247379         2.296381
 H         2.509750        -2.096565        -0.197672
 H         2.070168        -1.589879         1.307338
