19
Iteration:  4745charge 0 multiplicity 1
 C         0.206903        -0.496169        -0.808177
 C         1.551865        -0.071534        -0.243400
 C         2.441938         0.945090        -0.952002
 C         3.652589         1.018133         0.064206
 C         2.773806         0.764978         1.329188
 O         1.362196         0.670323         1.024906
 C         3.575158        -0.345102         0.799864
 O         4.649314        -0.759585         1.599587
 C         2.525349        -1.171949         0.149391
 H        -0.472418        -0.870253        -0.066403
 H        -0.186190         0.369011        -1.391131
 H         0.321039        -1.243276        -1.608597
 H         2.479194         0.686243        -2.060045
 H         1.861064         1.835293        -0.802834
 H         4.432150         1.706386        -0.083650
 H         3.041063         1.110849         2.359751
 H         4.193453        -1.124611         2.431317
 H         2.854433        -1.669245        -0.765381
 H         2.104849        -1.850823         0.854349
