19
Iteration:  1876
 C         0.062877        -0.398797        -0.767599
 C         1.511433        -0.112065        -0.290795
 C         2.520476         0.846279        -1.134048
 C         3.575470         1.077718         0.092388
 C         2.784419         0.855845         1.388989
 O         1.410421         0.552920         1.094146
 C         3.535241        -0.285789         0.848793
 O         4.715847        -0.783128         1.469424
 C         2.547667        -1.234695         0.294035
 H        -0.625373        -0.314727         0.088191
 H        -0.303064         0.394010        -1.535034
 H        -0.010050        -1.407616        -1.330333
 H         2.895481         0.204459        -1.871573
 H         2.157556         1.855238        -1.603876
 H         4.302378         1.789391         0.013485
 H         2.896895         1.408522         2.332725
 H         4.781226        -0.176146         2.288607
 H         3.000474        -1.859148        -0.532953
 H         1.975871        -1.958909         0.880648
