19
Iteration:  4870
 C         0.164512        -0.400601        -0.756645
 C         1.547223        -0.121946        -0.249409
 C         2.475613         0.807172        -1.001352
 C         3.528649         1.087570         0.029753
 C         2.808735         0.844587         1.409496
 O         1.442927         0.622173         0.988989
 C         3.600184        -0.305793         0.799624
 O         4.671425        -0.779978         1.678553
 C         2.495833        -1.211057         0.069983
 H        -0.404801        -1.188405        -0.171316
 H        -0.478813         0.505986        -0.672093
 H         0.195738        -0.587454        -1.846807
 H         2.868856         0.526685        -1.896471
 H         1.872422         1.708635        -1.398815
 H         4.404384         1.605428        -0.146644
 H         2.895015         1.341711         2.385885
 H         4.121712        -0.792960         2.523997
 H         2.822085        -1.745130        -0.835572
 H         1.972922        -2.010006         0.690137
