19
Iteration:  2644
 C         0.355544        -0.521808        -0.854763
 C         1.597564        -0.122347        -0.179705
 C         2.484008         0.887421        -1.036287
 C         3.531731         1.000512         0.106674
 C         2.705935         0.923079         1.364948
 O         1.326482         0.747360         0.961272
 C         3.468806        -0.280184         0.917981
 O         4.594211        -0.874850         1.461564
 C         2.606562        -1.207424         0.284992
 H        -0.531606         0.050128        -0.483841
 H         0.382626        -0.435297        -2.004291
 H         0.069747        -1.577422        -0.374613
 H         2.736148         0.477057        -1.983565
 H         1.790151         1.818668        -1.187005
 H         4.528741         1.531766        -0.031364
 H         2.889514         1.469197         2.274106
 H         4.868705        -0.555740         2.373565
 H         3.013488        -1.788995        -0.537550
 H         2.054082        -1.859601         0.867863
