19
Iteration:  4856
 C         0.162113        -0.335609        -0.869454
 C         1.520980        -0.077808        -0.192811
 C         2.435935         0.928388        -1.047852
 C         3.588259         0.964096         0.049873
 C         2.783520         0.805750         1.269160
 O         1.414400         0.606361         1.105888
 C         3.568403        -0.355775         0.844240
 O         4.654684        -0.694577         1.620400
 C         2.529854        -1.321920         0.166786
 H        -0.440166        -1.039087        -0.269193
 H        -0.343608         0.607992        -1.038980
 H         0.348212        -0.988052        -1.786445
 H         2.709837         0.374473        -1.974345
 H         1.972685         1.901538        -1.080610
 H         4.364158         1.791402         0.059797
 H         3.090524         1.286836         2.146552
 H         4.438885        -0.767843         2.530316
 H         2.982213        -1.675823        -0.767656
 H         2.242889        -2.125617         0.851646
