19
Iteration:  4701
 C         0.179169        -0.321884        -0.845756
 C         1.564870        -0.182300        -0.276070
 C         2.512214         0.785718        -1.035118
 C         3.506038         1.011639         0.087601
 C         2.672987         0.816883         1.432591
 O         1.340580         0.627019         1.050019
 C         3.532031        -0.259262         0.960432
 O         4.712959        -0.813538         1.458634
 C         2.595433        -1.175706         0.172865
 H        -0.353300        -1.225638        -0.644332
 H        -0.461801         0.506929        -0.436850
 H         0.121215        -0.081274        -1.894348
 H         3.178354         0.344004        -1.882295
 H         2.076862         1.665286        -1.472228
 H         4.294137         1.716862         0.076385
 H         2.884528         1.283408         2.397380
 H         4.909489        -0.552989         2.418221
 H         3.186540        -1.707526        -0.571532
 H         2.090016        -1.832738         0.839231
