19
Iteration:  3284charge 0 multiplicity 1
 C         0.309477        -0.506730        -0.881303
 C         1.607954        -0.164220        -0.266733
 C         2.560957         0.899514        -0.952040
 C         3.520045         1.067414         0.166787
 C         2.747671         0.864640         1.407706
 O         1.272301         0.721932         1.014420
 C         3.524866        -0.302675         0.797902
 O         4.649165        -0.810037         1.447446
 C         2.531144        -1.183100         0.270288
 H        -0.506811         0.187301        -0.543171
 H         0.330773        -0.442465        -1.940300
 H         0.039369        -1.589856        -0.663757
 H         2.959875         0.414871        -1.906512
 H         2.033123         1.761664        -1.137054
 H         4.247161         1.758577         0.037490
 H         2.813194         1.340964         2.360511
 H         4.411920        -1.281417         2.303654
 H         2.925300        -1.796463        -0.564702
 H         1.916214        -1.796080         1.077277
