19
Iteration:  4536
 C         0.301507        -0.505610        -1.031566
 C         1.510298        -0.121554        -0.229236
 C         2.435964         0.854594        -0.974225
 C         3.548414         0.962416         0.068368
 C         2.743067         0.919183         1.368807
 O         1.422058         0.756097         1.110672
 C         3.486866        -0.292390         0.923784
 O         4.735917        -0.828714         1.490164
 C         2.414694        -1.234307         0.291681
 H         0.413749        -0.219345        -2.088344
 H         0.138416        -1.590159        -1.029707
 H        -0.624017        -0.185809        -0.614316
 H         2.605935         0.581058        -2.067957
 H         2.028199         1.804216        -1.046776
 H         4.537985         1.552906        -0.000319
 H         3.199754         1.735862         2.032865
 H         4.782890        -0.615768         2.413311
 H         2.789145        -2.003838        -0.398602
 H         1.849194        -1.645505         1.106789
