19
Iteration:  3984
 C         0.330991        -0.506225        -0.980176
 C         1.532107        -0.148784        -0.204673
 C         2.487299         0.938742        -0.888969
 C         3.540965         1.140455         0.111702
 C         2.689213         0.776840         1.470107
 O         1.347763         0.650982         1.012827
 C         3.578614        -0.232499         0.897025
 O         4.716131        -0.859306         1.364194
 C         2.484788        -1.165424         0.267961
 H        -0.512926        -0.005055        -0.451127
 H         0.161484        -0.254758        -2.035805
 H         0.283895        -1.572957        -0.816864
 H         2.769085         0.775637        -1.990000
 H         1.830139         1.859750        -1.020635
 H         4.197150         1.925467         0.137569
 H         2.811709         1.300536         2.437482
 H         4.390017        -1.322591         2.210733
 H         2.868607        -1.808550        -0.563743
 H         1.994516        -1.960503         0.909088
