19
Iteration:  4857charge 0 multiplicity 1
 C         0.158451        -0.338650        -0.861920
 C         1.524525        -0.080053        -0.199171
 C         2.436922         0.920814        -1.053927
 C         3.591217         0.974787         0.054001
 C         2.783567         0.809040         1.280295
 O         1.421483         0.606112         1.097418
 C         3.573804        -0.350955         0.834515
 O         4.652881        -0.698744         1.628540
 C         2.517487        -1.322101         0.162495
 H        -0.437777        -1.065975        -0.252557
 H        -0.350898         0.608023        -1.023775
 H         0.348972        -0.961390        -1.803074
 H         2.706576         0.380615        -1.927073
 H         1.940673         1.916752        -1.086501
 H         4.336034         1.783631         0.042223
 H         3.100452         1.285466         2.147632
 H         4.446471        -0.774473         2.549449
 H         2.979780        -1.650556        -0.772807
 H         2.248370        -2.154797         0.846337
