19
Iteration:  1237charge 0 multiplicity 1
 C         0.095546        -0.353766        -0.763502
 C         1.497980        -0.095406        -0.231013
 C         2.442083         0.758762        -1.022445
 C         3.495141         0.937039        -0.012038
 C         2.783999         0.980428         1.255840
 O         1.422825         0.675546         0.971396
 C         3.609374        -0.339426         0.959014
 O         4.782291        -0.685000         1.588657
 C         2.465493        -1.317037         0.347230
 H        -0.657960        -0.455994         0.012186
 H        -0.123471         0.522747        -1.499204
 H         0.071558        -1.249173        -1.427719
 H         2.860598         0.100042        -1.823655
 H         1.988179         1.678448        -1.477508
 H         4.359275         1.647703        -0.276081
 H         2.970199         1.574087         2.144518
 H         5.263719        -1.420663         1.082765
 H         2.843753        -2.080110        -0.409678
 H         2.007143        -1.766207         1.252712
