19
Iteration:  4491
 C         0.187270        -0.519438        -0.837156
 C         1.596910        -0.107288        -0.252067
 C         2.546957         0.787573        -1.035311
 C         3.564916         1.068283         0.106570
 C         2.665563         0.910048         1.406562
 O         1.408178         0.769960         0.998084
 C         3.513931        -0.300985         0.925979
 O         4.701853        -0.828520         1.467240
 C         2.482511        -1.217695         0.243842
 H         0.195976        -0.142976        -1.869820
 H         0.030131        -1.575290        -0.877994
 H        -0.567374        -0.059160        -0.169705
 H         3.155339         0.314391        -1.878133
 H         2.155336         1.602288        -1.500072
 H         4.231645         1.864144         0.176306
 H         2.749094         1.531485         2.319710
 H         4.380519        -1.109884         2.344886
 H         2.760730        -1.774398        -0.665973
 H         1.993733        -1.914904         0.900921
