19
Iteration:   196charge 0 multiplicity 1
 C         0.211661        -0.579934        -0.672518
 C         1.571975        -0.076617        -0.254188
 C         2.528985         0.762957        -1.119876
 C         3.614774         0.910723        -0.049795
 C         2.776120         0.953927         1.317667
 O         1.406383         0.883989         0.978901
 C         3.472894        -0.304328         0.868361
 O         4.693478        -0.778339         1.486411
 C         2.394626        -1.183063         0.382490
 H        -0.276437        -0.909180         0.262255
 H        -0.442834         0.193236        -1.199718
 H         0.289989        -1.507916        -1.312428
 H         2.897046         0.245324        -2.072860
 H         2.096306         1.745994        -1.378168
 H         4.557884         1.409906        -0.070636
 H         3.059750         1.391687         2.286241
 H         4.478736        -1.197495         2.313277
 H         2.657352        -2.028640        -0.253185
 H         1.774154        -1.583294         1.233621
