19
Iteration:  2279charge 0 multiplicity 1
 C         0.202034        -0.359595        -0.846177
 C         1.520826        -0.183787        -0.159986
 C         2.531842         0.804531        -0.968925
 C         3.492785         0.986181         0.133874
 C         2.662980         0.919488         1.323609
 O         1.299086         0.661986         0.948457
 C         3.533925        -0.335673         0.896435
 O         4.801089        -0.731367         1.471005
 C         2.574344        -1.277328         0.209860
 H         0.056853         0.347325        -1.655910
 H         0.073178        -1.449605        -1.162240
 H        -0.509903        -0.124164        -0.048238
 H         3.055858         0.194404        -1.714503
 H         2.039574         1.682965        -1.206923
 H         4.335961         1.613202         0.168363
 H         2.862658         1.484072         2.232047
 H         4.688208        -0.481299         2.468374
 H         2.844112        -1.522716        -0.817383
 H         2.263655        -2.042170         0.883808
