19
Iteration:  1490charge 0 multiplicity 1
 C         0.064257        -0.413516        -0.740581
 C         1.480162        -0.066580        -0.183748
 C         2.506601         0.757861        -1.073512
 C         3.580160         0.937238        -0.058824
 C         2.821752         0.905153         1.250116
 O         1.446897         0.702539         1.047296
 C         3.599959        -0.373023         0.880901
 O         4.736686        -0.687871         1.598726
 C         2.416667        -1.276379         0.213052
 H        -0.582699        -0.847067         0.112507
 H        -0.549034         0.461152        -1.149385
 H         0.065973        -1.134650        -1.543556
 H         2.828997         0.140516        -1.890181
 H         1.934302         1.669314        -1.461640
 H         4.585645         1.503143        -0.007507
 H         3.034637         1.545797         2.111482
 H         4.698192        -0.243815         2.434178
 H         2.904066        -1.850549        -0.553431
 H         2.052110        -1.886153         1.088831
