19
Iteration:  3674
 C         0.304868        -0.441595        -0.996578
 C         1.527515        -0.110370        -0.186617
 C         2.451679         0.942707        -0.884610
 C         3.509303         1.033518         0.186760
 C         2.766015         0.864497         1.444816
 O         1.284998         0.649821         0.962765
 C         3.565179        -0.335509         0.870054
 O         4.744870        -0.766043         1.365098
 C         2.533639        -1.255118         0.331053
 H         0.093063         0.319673        -1.785163
 H         0.418560        -1.371326        -1.454720
 H        -0.625130        -0.673573        -0.384399
 H         2.821655         0.633781        -1.799697
 H         1.866706         1.862438        -1.190429
 H         4.405439         1.590487        -0.033234
 H         2.751220         1.264515         2.460889
 H         4.792431        -1.111372         2.311546
 H         2.726545        -1.848346        -0.563438
 H         1.913827        -1.940372         0.940549
