19
Iteration:  3387charge 0 multiplicity 1
 C         0.236554        -0.365342        -0.953765
 C         1.514889        -0.078411        -0.192977
 C         2.500771         0.852967        -1.007953
 C         3.542838         0.983731         0.089989
 C         2.691617         0.835748         1.374408
 O         1.335260         0.560219         1.021803
 C         3.495676        -0.298246         0.975070
 O         4.712298        -0.814610         1.575608
 C         2.534951        -1.169851         0.230261
 H        -0.221299         0.561446        -1.244341
 H         0.553086        -1.222932        -1.698167
 H        -0.476670        -0.892800        -0.351489
 H         2.815896         0.455850        -1.918279
 H         2.176885         1.895024        -1.196251
 H         4.420393         1.614375        -0.012386
 H         2.848892         1.456184         2.226383
 H         5.339287        -0.176571         1.144788
 H         3.019039        -1.646006        -0.652468
 H         2.087010        -1.869791         0.902657
