19
Iteration:  3416
 C         0.299193        -0.503116        -0.930584
 C         1.547478        -0.104929        -0.236330
 C         2.538700         0.850814        -0.959646
 C         3.508508         1.160440         0.180314
 C         2.645411         0.847645         1.521874
 O         1.313723         0.737722         0.988557
 C         3.528055        -0.300897         0.861619
 O         4.683558        -0.904681         1.413297
 C         2.502038        -1.223218         0.206068
 H        -0.117969         0.269911        -1.573910
 H         0.559646        -1.527207        -1.258311
 H        -0.258810        -0.618393         0.051657
 H         3.076433         0.399072        -1.948401
 H         2.188120         1.786688        -1.354529
 H         4.604360         1.626273        -0.096444
 H         2.832713         1.292418         2.495213
 H         5.006632        -0.140166         2.022374
 H         2.790306        -1.954861        -0.615698
 H         2.058497        -1.943377         1.054057
