19
Iteration:  2540
 C         0.209391        -0.376993        -0.919813
 C         1.475870        -0.083965        -0.246859
 C         2.546194         0.817960        -1.000086
 C         3.559119         1.071217         0.148805
 C         2.659477         0.773155         1.383885
 O         1.293521         0.563933         1.029087
 C         3.604464        -0.283715         0.793907
 O         4.759380        -0.741565         1.539848
 C         2.539593        -1.234653         0.260620
 H        -0.042624         0.552756        -1.417103
 H         0.339081        -1.139557        -1.717109
 H        -0.618810        -0.608139        -0.300851
 H         2.850848         0.191199        -1.993901
 H         2.004380         1.665884        -1.326361
 H         4.251707         1.845573         0.144873
 H         2.924764         1.247280         2.330115
 H         4.839059        -0.211127         2.341215
 H         2.862447        -1.921471        -0.539554
 H         2.151556        -1.741489         1.258091
