19
Iteration:  1088charge 0 multiplicity 1
 C         0.220913        -0.326306        -0.778478
 C         1.546966        -0.181219        -0.122911
 C         2.472438         0.610633        -1.076836
 C         3.518346         0.885084        -0.066033
 C         2.761732         1.001379         1.256637
 O         1.405331         0.797007         1.071057
 C         3.517539        -0.318909         0.909901
 O         4.665466        -0.703399         1.578701
 C         2.467002        -1.321704         0.310689
 H        -0.468544        -1.137505        -0.334885
 H        -0.390330         0.628251        -0.592451
 H         0.339313        -0.384753        -1.814489
 H         2.888853         0.099186        -1.911007
 H         1.876773         1.475710        -1.419655
 H         4.451162         1.563519        -0.336927
 H         3.085650         1.727760         1.957195
 H         5.486900        -0.587718         1.003503
 H         2.998470        -1.923240        -0.369182
 H         2.072684        -1.905256         1.165277
