19
Iteration:     6
 C         0.220354        -0.453118        -0.686465
 C         1.554824        -0.083621        -0.169856
 C         2.483095         0.674181        -1.063727
 C         3.578666         0.882362        -0.064984
 C         2.778678         0.986519         1.242759
 O         1.409499         0.839106         0.965697
 C         3.518853        -0.347196         0.894864
 O         4.677231        -0.742085         1.483564
 C         2.449763        -1.177294         0.350676
 H        -0.255542        -1.080355         0.096613
 H        -0.373144         0.479967        -0.880435
 H         0.228944        -1.172609        -1.524882
 H         2.767924        -0.019162        -1.890314
 H         2.030025         1.643931        -1.389153
 H         4.473001         1.543476        -0.045673
 H         3.106761         1.485063         2.183099
 H         4.422897        -1.160505         2.335332
 H         2.749805        -1.997838        -0.338935
 H         1.992448        -1.803507         1.146640
