19
Iteration:  4292
 C         0.243212        -0.394304        -0.870242
 C         1.554908        -0.112390        -0.280003
 C         2.470566         0.970285        -0.964618
 C         3.512166         1.091542         0.106796
 C         2.692227         0.804510         1.348457
 O         1.351468         0.512773         1.027978
 C         3.516146        -0.284607         0.861406
 O         4.746628        -0.723278         1.610200
 C         2.548214        -1.247565         0.159937
 H        -0.357394        -1.048460        -0.185776
 H        -0.316617         0.606640        -0.782208
 H         0.351902        -0.893923        -1.846063
 H         2.876825         0.616431        -1.961898
 H         1.850775         1.783038        -1.078946
 H         4.425263         1.665655         0.115810
 H         2.795779         1.228436         2.337328
 H         4.850183        -1.711869         1.585618
 H         3.042790        -1.692408        -0.729490
 H         2.000782        -1.872272         0.925714
