19
Iteration:  3965
 C         0.330136        -0.508831        -0.966527
 C         1.567910        -0.075986        -0.234059
 C         2.531335         0.999529        -0.955073
 C         3.461643         1.030544         0.234795
 C         2.648720         0.923289         1.455502
 O         1.301004         0.596565         1.104511
 C         3.524133        -0.329628         0.906355
 O         4.760389        -0.825796         1.277264
 C         2.499005        -1.177400         0.260539
 H        -0.683790        -0.099241        -0.803534
 H         0.438742        -0.288533        -2.068902
 H         0.126515        -1.551554        -0.905972
 H         2.891508         0.325294        -1.858854
 H         2.018680         1.864771        -1.274485
 H         4.489681         1.539711         0.176712
 H         2.831644         1.475068         2.334410
 H         4.818816        -1.168823         2.236625
 H         2.917314        -1.871528        -0.468878
 H         1.950613        -1.652355         1.033856
