19
Iteration:    82
 C         0.210687        -0.321129        -0.679731
 C         1.558641        -0.136752        -0.092755
 C         2.464627         0.619522        -1.099064
 C         3.501040         0.923637        -0.025186
 C         2.787553         0.954558         1.231038
 O         1.435303         0.771807         0.927049
 C         3.505758        -0.340254         0.899362
 O         4.689469        -0.653950         1.484425
 C         2.495644        -1.335170         0.387430
 H        -0.497985        -0.976371        -0.072897
 H        -0.314836         0.661169        -0.844560
 H         0.423507        -0.610833        -1.772638
 H         2.847244         0.006871        -1.953453
 H         1.911819         1.486869        -1.573587
 H         4.484340         1.605480        -0.044645
 H         3.009189         1.432330         2.143331
 H         4.556519        -0.797614         2.451485
 H         2.843503        -1.829744        -0.595282
 H         1.994284        -1.991256         1.150310
