19
Iteration:  2435
 C         0.197913        -0.403823        -0.869152
 C         1.529535        -0.153584        -0.196903
 C         2.511549         0.824903        -1.014229
 C         3.579657         0.969503         0.043391
 C         2.644997         0.975146         1.324017
 O         1.299489         0.579822         1.063968
 C         3.579128        -0.307804         0.888848
 O         4.666676        -0.754285         1.669283
 C         2.584952        -1.231220         0.147259
 H        -0.303235         0.695307        -0.821136
 H         0.515583        -0.646981        -1.863676
 H        -0.366615        -1.182048        -0.372172
 H         2.884204         0.501582        -1.913052
 H         1.908927         1.770896        -1.303170
 H         4.366835         1.634328         0.180617
 H         2.872109         1.592169         2.209035
 H         5.484509        -0.580246         1.247678
 H         3.086002        -1.750489        -0.761725
 H         2.090240        -2.086114         0.727339
