19
Iteration:  1328
 C         0.159848        -0.468268        -0.659049
 C         1.539849        -0.123222        -0.147281
 C         2.486217         0.728989        -1.095670
 C         3.560750         0.956051        -0.059153
 C         2.827660         0.994810         1.233952
 O         1.460035         0.761449         1.013232
 C         3.510532        -0.251876         0.882608
 O         4.583435        -0.827698         1.527749
 C         2.504502        -1.263933         0.311156
 H        -0.140264        -1.496514        -0.301604
 H        -0.568448         0.299706        -0.411237
 H         0.279310        -0.412918        -1.726622
 H         2.832692         0.139714        -1.900844
 H         2.036673         1.749269        -1.497436
 H         4.451613         1.515978        -0.296552
 H         3.055073         1.650039         2.053230
 H         4.853501        -0.409742         2.350048
 H         2.765791        -1.605245        -0.675550
 H         2.202775        -2.001202         1.080298
