19
Iteration:  1908
 C         0.195248        -0.383985        -0.746250
 C         1.561818        -0.171280        -0.147898
 C         2.375480         0.801007        -0.998895
 C         3.601417         1.032200         0.037097
 C         2.727422         0.891093         1.344218
 O         1.355356         0.672912         1.030358
 C         3.608750        -0.337568         0.799641
 O         4.627584        -0.791625         1.619561
 C         2.592164        -1.243392         0.131896
 H        -0.625104        -0.200264        -0.019735
 H         0.072136         0.341944        -1.638100
 H        -0.016015        -1.489285        -1.167033
 H         2.521827         0.409874        -1.943437
 H         1.867824         1.872904        -1.103094
 H         4.294461         1.780454        -0.140793
 H         2.958814         1.266275         2.356386
 H         5.422422        -0.302319         1.352248
 H         3.051036        -1.429319        -0.895369
 H         2.312946        -2.173392         0.700593
