19
Iteration:  4349
 C         0.222574        -0.494346        -0.829700
 C         1.515803        -0.018438        -0.222681
 C         2.538860         0.911087        -1.006093
 C         3.553349         1.008755         0.089510
 C         2.658903         0.904606         1.447929
 O         1.336555         0.610912         0.978506
 C         3.550303        -0.311049         0.838652
 O         4.637739        -0.844891         1.579932
 C         2.579091        -1.214649         0.195126
 H         0.333748        -1.533339        -1.028139
 H        -0.554624        -0.239231        -0.134264
 H        -0.016023         0.148003        -1.712983
 H         2.900552         0.325064        -1.903795
 H         2.170716         1.804614        -1.323947
 H         4.423252         1.783367         0.205015
 H         2.764774         1.444421         2.408725
 H         5.404012        -0.474556         1.082650
 H         3.030808        -1.798895        -0.634574
 H         2.057750        -1.910996         0.887681
