19
Iteration:  2066
 C         0.208129        -0.501992        -0.756297
 C         1.543430        -0.065298        -0.232112
 C         2.448648         0.899152        -1.055100
 C         3.605306         0.953118         0.018115
 C         2.682691         0.905679         1.356386
 O         1.296194         0.632415         1.039642
 C         3.497845        -0.250449         0.929404
 O         4.728608        -0.808254         1.530761
 C         2.596038        -1.108331         0.202532
 H         0.147877        -1.704074        -0.651436
 H        -0.507096        -0.115104         0.002580
 H        -0.027643        -0.081884        -1.763216
 H         2.963781         0.364476        -1.958701
 H         2.143664         1.877340        -1.325578
 H         4.449398         1.528805        -0.029908
 H         2.862998         1.513848         2.272621
 H         4.596565        -1.728876         1.363281
 H         3.174616        -1.617790        -0.573062
 H         2.347514        -1.958263         0.913480
