19
Iteration:  3064
 C         0.218767        -0.460079        -0.816255
 C         1.576161        -0.039160        -0.307243
 C         2.583844         0.908534        -1.079800
 C         3.525249         0.974348         0.071895
 C         2.684043         0.823293         1.348458
 O         1.318806         0.583873         1.020742
 C         3.546520        -0.285893         0.879583
 O         4.729589        -0.766751         1.612009
 C         2.508965        -1.139058         0.243693
 H        -0.577977         0.361557        -0.394615
 H         0.261594        -0.610545        -1.928977
 H        -0.195258        -1.412328        -0.447639
 H         2.930021         0.335848        -2.063119
 H         2.169875         1.843547        -1.394785
 H         4.330653         1.790941         0.126599
 H         2.720017         1.488634         2.168508
 H         4.487092        -1.409424         2.241936
 H         2.902440        -1.767867        -0.559842
 H         2.016331        -1.835629         0.973183
