19
Iteration:   251charge 0 multiplicity 1
 C         0.109812        -0.224252        -0.769393
 C         1.478245        -0.084560        -0.158430
 C         2.519262         0.501355        -1.172264
 C         3.511836         0.873813        -0.168516
 C         2.772395         0.922701         1.307413
 O         1.427071         0.627950         1.045926
 C         3.562654        -0.278682         0.925022
 O         4.746800        -0.670338         1.583689
 C         2.504220        -1.190953         0.390718
 H        -0.397852        -1.098942        -0.405499
 H        -0.567927         0.700297        -0.426802
 H         0.127147        -0.086965        -1.857678
 H         2.844877        -0.315466        -1.885975
 H         2.361959         1.318092        -1.895402
 H         4.355255         1.676498        -0.135293
 H         2.985256         1.803914         1.817499
 H         4.490603        -0.719491         2.536890
 H         2.955089        -1.781113        -0.390027
 H         2.104616        -1.813416         1.243882
