19
Iteration:  2622
 C         0.264143        -0.680946        -0.847807
 C         1.567292        -0.052069        -0.305956
 C         2.532517         0.949472        -1.065782
 C         3.560087         1.128970         0.123910
 C         2.727386         0.946559         1.344901
 O         1.413379         0.665974         1.030253
 C         3.531275        -0.265881         0.903679
 O         4.614361        -0.976243         1.545113
 C         2.443393        -1.123708         0.258215
 H        -0.706589        -0.255299        -0.410692
 H         0.276643        -0.462819        -1.971835
 H         0.210669        -1.759930        -0.384104
 H         3.023891         0.495601        -1.899010
 H         1.862890         1.825891        -1.474303
 H         4.371946         1.969044        -0.071419
 H         2.894805         1.626687         2.170688
 H         4.900540        -0.575164         2.349897
 H         2.780498        -1.830618        -0.521497
 H         1.965374        -1.661358         1.000403
