19
Iteration:  3861
 C         0.290375        -0.563355        -0.844393
 C         1.556352        -0.064078        -0.269472
 C         2.491885         0.908484        -0.913164
 C         3.501545         1.092728         0.187584
 C         2.669859         0.760766         1.437359
 O         1.344547         0.682118         1.067528
 C         3.559125        -0.281985         0.842359
 O         4.684155        -0.849399         1.447416
 C         2.557152        -1.105247         0.041297
 H        -0.155159         0.192440        -1.556351
 H         0.317896        -1.557151        -1.321710
 H        -0.589284        -0.683556        -0.042627
 H         3.005858         0.732895        -1.910970
 H         1.807266         1.924212        -1.156979
 H         4.505183         1.713678         0.230494
 H         2.845025         1.128253         2.386828
 H         4.641115        -0.779348         2.412823
 H         2.912711        -1.686507        -0.838000
 H         2.272418        -2.034609         0.704705
