19
Iteration:  2369charge 0 multiplicity 1
 C         0.233724        -0.547072        -0.859401
 C         1.568317        -0.061809        -0.230193
 C         2.544453         0.817180        -1.043072
 C         3.534466         0.991581         0.105077
 C         2.682462         0.958106         1.395800
 O         1.331638         0.703954         1.000029
 C         3.542510        -0.253932         0.984357
 O         4.758055        -0.800630         1.469317
 C         2.492583        -1.197803         0.226078
 H        -0.764629        -0.073199        -0.509351
 H         0.187866        -0.476917        -1.945510
 H         0.043171        -1.552518        -0.590219
 H         2.893218         0.315133        -1.924692
 H         1.941456         1.746748        -1.438595
 H         4.418115         1.718645         0.077049
 H         2.753494         1.651513         2.250809
 H         4.470430        -1.473531         2.185362
 H         3.018674        -1.729495        -0.645268
 H         1.964093        -1.807508         1.015675
