19
Iteration:  1149charge 0 multiplicity 1
 C         0.240981        -0.505601        -0.617885
 C         1.568428        -0.056222        -0.158827
 C         2.563153         0.774008        -1.071870
 C         3.602405         0.981372        -0.009323
 C         2.774174         1.020829         1.246130
 O         1.377000         0.753732         0.921336
 C         3.536214        -0.249073         0.862265
 O         4.577222        -0.895755         1.527695
 C         2.406168        -1.227472         0.369077
 H        -0.103606        -1.228588         0.065923
 H        -0.465481         0.350175        -0.676514
 H         0.269683        -1.164531        -1.552622
 H         2.951301         0.275590        -2.040906
 H         1.743098         1.544828        -1.281691
 H         4.481133         1.572368        -0.321198
 H         2.842700         1.673540         2.091338
 H         5.452509        -0.564011         1.141831
 H         2.734292        -2.019281        -0.381090
 H         2.062324        -1.777840         1.265034
