19
Iteration:  1097charge 0 multiplicity 1
 C         0.195451        -0.371485        -0.767038
 C         1.470210        -0.152846        -0.100114
 C         2.498479         0.605061        -1.013702
 C         3.529947         0.867904         0.001605
 C         2.763122         0.986194         1.189106
 O         1.375878         0.814129         1.010473
 C         3.580066        -0.284677         0.917457
 O         4.740558        -0.735354         1.566126
 C         2.432034        -1.275337         0.327590
 H        -0.490429        -1.235095        -0.677507
 H        -0.400078         0.634089        -0.669197
 H         0.345708        -0.369021        -1.831236
 H         2.560124        -0.101882        -1.736578
 H         1.978026         1.579507        -1.490335
 H         4.475793         1.529921        -0.250467
 H         3.080013         1.572362         2.019594
 H         5.623041        -0.412804         1.187677
 H         2.774877        -1.731116        -0.594089
 H         2.093950        -1.982689         1.097822
