19
Iteration:  4301charge 0 multiplicity 1
 C         0.212937        -0.349032        -0.872008
 C         1.531149        -0.122929        -0.202861
 C         2.448571         0.937430        -0.904073
 C         3.538888         1.127718         0.045848
 C         2.740407         0.760519         1.317998
 O         1.312999         0.525280         0.996784
 C         3.581320        -0.380181         0.856897
 O         4.677056        -0.674434         1.638816
 C         2.608568        -1.212708         0.158048
 H        -0.131365        -1.325633        -0.363881
 H        -0.513295         0.567121        -0.859448
 H         0.325048        -0.518305        -1.954561
 H         2.860493         0.660929        -1.879567
 H         1.843403         1.890421        -1.019645
 H         4.409061         1.588608        -0.067525
 H         2.885034         1.168097         2.286337
 H         4.710870        -1.672104         1.523102
 H         3.038251        -1.870964        -0.647870
 H         2.325385        -1.986500         0.949871
