19
Iteration:    95charge 0 multiplicity 1
 C         0.100414        -0.302097        -0.788280
 C         1.498681        -0.179436        -0.207869
 C         2.486838         0.592977        -1.029079
 C         3.578685         0.883811        -0.041562
 C         2.807016         0.911021         1.319034
 O         1.437476         0.816338         1.031551
 C         3.499728        -0.349968         0.916345
 O         4.756588        -0.554174         1.515339
 C         2.460446        -1.343611         0.283586
 H        -0.624469        -0.825532        -0.055902
 H        -0.191226         0.720359        -0.899753
 H        -0.014935        -1.021722        -1.696751
 H         2.875614        -0.127938        -1.883197
 H         2.038686         1.488960        -1.398215
 H         4.531585         1.363363        -0.380379
 H         3.083783         1.533588         2.125827
 H         4.688853        -0.507931         2.495858
 H         2.869026        -2.019739        -0.544740
 H         1.998749        -2.099287         0.988664
