19
Iteration:  1016charge 0 multiplicity 1
 C         0.193478        -0.597216        -0.618461
 C         1.561856        -0.073690        -0.211318
 C         2.462868         0.754556        -1.052346
 C         3.538941         0.923403        -0.033588
 C         2.826558         1.046305         1.318744
 O         1.465114         0.787683         0.991220
 C         3.528108        -0.228932         0.973023
 O         4.568434        -0.776698         1.503660
 C         2.522343        -1.159891         0.229869
 H        -0.625848        -0.656334         0.106628
 H        -0.218022        -0.126169        -1.457564
 H         0.459642        -1.597627        -1.184926
 H         2.750087         0.123944        -2.056339
 H         2.110073         1.731317        -1.356975
 H         4.562509         1.218151        -0.245079
 H         3.164852         1.700560         2.104749
 H         4.366735        -1.761613         1.643575
 H         2.799762        -1.691006        -0.777544
 H         2.022634        -1.834208         0.968375
