19
Iteration:  1640
 C         0.126740        -0.380510        -0.681672
 C         1.545891        -0.132261        -0.214987
 C         2.463323         0.760615        -1.049842
 C         3.627534         0.923402        -0.059145
 C         2.763489         0.936572         1.304406
 O         1.386474         0.677060         0.981965
 C         3.526725        -0.328252         0.834489
 O         4.647936        -0.770208         1.589008
 C         2.531538        -1.231837         0.275167
 H        -0.416605        -0.572730         0.292341
 H        -0.109515         0.651389        -1.082895
 H        -0.092090        -1.145701        -1.358060
 H         2.878419         0.235568        -1.995577
 H         2.037517         1.662563        -1.329198
 H         4.446091         1.651708        -0.237641
 H         3.019652         1.465131         2.238856
 H         5.135392        -0.001041         1.803225
 H         2.946812        -1.890486        -0.474424
 H         2.115929        -1.904567         1.033951
