19
Iteration:  2938charge 0 multiplicity 1
 C         0.090673        -0.411661        -0.896881
 C         1.553944        -0.096553        -0.299574
 C         2.520533         0.866417        -1.053501
 C         3.562871         0.949702         0.061227
 C         2.698494         0.892322         1.387409
 O         1.350671         0.590093         1.034711
 C         3.505057        -0.295458         0.989770
 O         4.811611        -0.722023         1.597329
 C         2.556637        -1.232776         0.175016
 H        -0.116568         0.319662        -1.613544
 H         0.001974        -1.374710        -1.395084
 H        -0.751291        -0.525555        -0.149855
 H         2.859361         0.497561        -1.939891
 H         2.077694         1.878919        -1.249251
 H         4.446097         1.761474         0.149225
 H         2.924537         1.566519         2.178521
 H         4.588094        -1.251081         2.387019
 H         3.192410        -1.674186        -0.697169
 H         1.865783        -1.911891         0.786882
