19
Iteration:  1443charge 0 multiplicity 1
 C         0.167718        -0.542882        -0.645597
 C         1.530865        -0.051386        -0.264234
 C         2.512273         0.739928        -1.110664
 C         3.539922         1.074264         0.017768
 C         2.800620         1.044934         1.322405
 O         1.441285         0.710105         1.069920
 C         3.559360        -0.282698         0.853354
 O         4.621754        -0.889913         1.455255
 C         2.470295        -1.222533         0.291247
 H        -0.599683        -0.408144         0.100837
 H        -0.098808        -0.003917        -1.596170
 H         0.222413        -1.540846        -0.975916
 H         3.020877         0.125558        -1.995569
 H         2.158675         1.644949        -1.515930
 H         4.362945         1.658158        -0.253113
 H         3.074443         1.723602         2.127296
 H         4.563738        -0.623352         2.389431
 H         2.843515        -1.894243        -0.492083
 H         2.008962        -1.679329         1.163085
