19
Iteration:  4405charge 0 multiplicity 1
 C         0.303544        -0.507087        -0.918840
 C         1.556566        -0.068796        -0.188946
 C         2.560606         0.791459        -1.014711
 C         3.567498         1.007579         0.035709
 C         2.729807         0.920200         1.373716
 O         1.262844         0.669170         1.102490
 C         3.503015        -0.263671         0.894221
 O         4.671448        -0.884025         1.429336
 C         2.504386        -1.128112         0.319323
 H         0.397540        -0.617607        -2.005701
 H        -0.141849        -1.388900        -0.565118
 H        -0.397913         0.318580        -0.856378
 H         2.856778         0.329526        -1.946593
 H         2.076221         1.705856        -1.192366
 H         4.382968         1.716725         0.059577
 H         2.908051         1.599648         2.176202
 H         4.836153        -0.505029         2.281840
 H         2.981209        -1.680891        -0.509721
 H         1.981232        -1.823197         0.973273
