19
Iteration:  4797charge 0 multiplicity 1
 C         0.247243        -0.462306        -0.851457
 C         1.555011        -0.093621        -0.250942
 C         2.632889         0.853435        -0.983403
 C         3.533166         1.026717         0.201596
 C         2.608345         0.872047         1.525096
 O         1.239629         0.711183         1.036115
 C         3.563480        -0.238284         0.859056
 O         4.754735        -0.820335         1.274843
 C         2.524217        -1.192484         0.281589
 H        -0.540785        -0.423457        -0.086206
 H        -0.078497         0.066964        -1.757037
 H         0.301234        -1.452992        -1.195267
 H         3.184048         0.174543        -1.750773
 H         2.383098         1.673072        -1.586014
 H         4.410143         1.571025         0.100010
 H         2.675515         1.464145         2.475783
 H         4.336147        -1.588010         1.786414
 H         2.836355        -1.880440        -0.518999
 H         2.147304        -1.794004         1.103855
