19
Iteration:  3636
 C         0.103763        -0.349378        -0.838555
 C         1.589000        -0.033440        -0.248136
 C         2.560322         0.817305        -1.027894
 C         3.519731         1.046584         0.136629
 C         2.708557         0.810067         1.399886
 O         1.315052         0.472543         1.021940
 C         3.543994        -0.314019         0.946653
 O         4.752881        -0.646243         1.537718
 C         2.528399        -1.194876         0.111963
 H        -0.156946         0.383086        -1.584954
 H         0.232084        -1.367031        -1.364054
 H        -0.521603        -0.319392         0.022897
 H         3.240986         0.198469        -1.760596
 H         2.154790         1.742921        -1.436317
 H         4.429864         1.663209         0.097573
 H         2.850988         1.421600         2.340029
 H         4.498388        -1.543393         1.959725
 H         3.024937        -1.585799        -0.805921
 H         2.051030        -1.957681         0.742283
