19
Iteration:  3027
 C         0.300380        -0.610287        -0.905263
 C         1.546180        -0.109283        -0.145577
 C         2.554728         0.912205        -0.962791
 C         3.546355         1.000281         0.116180
 C         2.677530         0.915465         1.407588
 O         1.358223         0.797330         0.996086
 C         3.513148        -0.266675         0.899524
 O         4.620136        -0.867571         1.417597
 C         2.526248        -1.181679         0.230381
 H        -0.222478         0.088046        -1.447943
 H         0.620024        -1.344064        -1.731256
 H        -0.326716        -1.088739        -0.151755
 H         2.864416         0.583175        -1.844180
 H         1.795691         1.752786        -1.022341
 H         4.435712         1.599804         0.083905
 H         3.059968         1.502477         2.286077
 H         4.371043        -1.057094         2.337600
 H         3.054217        -1.490675        -0.769697
 H         2.254142        -2.095652         0.886802
