19
Iteration:   441
 C         0.119138        -0.563615        -0.702152
 C         1.567279        -0.112846        -0.273044
 C         2.492486         0.691880        -1.141924
 C         3.587928         0.889601        -0.084557
 C         2.799737         1.143696         1.254541
 O         1.441143         0.812001         1.018566
 C         3.530001        -0.181215         1.000224
 O         4.642275        -0.970128         1.494196
 C         2.505037        -1.087596         0.402471
 H        -0.298842        -1.176037         0.154609
 H        -0.519354         0.213010        -0.901178
 H         0.321213        -1.335035        -1.526177
 H         2.736461         0.208202        -2.051606
 H         1.975176         1.681078        -1.424279
 H         4.550759         1.518844        -0.243063
 H         3.012617         1.925826         1.943640
 H         4.347191        -1.306315         2.394501
 H         2.949772        -1.850725        -0.272265
 H         1.913670        -1.462200         1.178639
