19
Iteration:  3594charge 0 multiplicity 1
 C         0.273705        -0.485645        -0.791304
 C         1.538091        -0.098964        -0.259330
 C         2.468485         0.943350        -0.949015
 C         3.549072         1.040585         0.087670
 C         2.725890         0.846031         1.378476
 O         1.376655         0.626888         0.954918
 C         3.538697        -0.297504         0.854410
 O         4.667107        -0.835091         1.559515
 C         2.528830        -1.181393         0.136894
 H        -0.395539         0.287401        -1.115293
 H         0.489790        -1.088386        -1.719773
 H        -0.292794        -1.019393        -0.102696
 H         2.737272         0.576800        -1.977678
 H         1.844432         1.891438        -0.829406
 H         4.503856         1.640205         0.040944
 H         2.887535         1.548013         2.261986
 H         4.434427        -0.948658         2.526995
 H         3.088274        -1.613657        -0.745708
 H         2.068690        -1.902038         0.860198
