19
Iteration:  2347charge 0 multiplicity 1
 C         0.249291        -0.620495        -0.838735
 C         1.580247        -0.084116        -0.218794
 C         2.463172         0.848884        -1.018463
 C         3.504076         1.031811         0.086812
 C         2.743744         0.888114         1.343799
 O         1.347111         0.806759         0.994653
 C         3.585623        -0.244936         0.861899
 O         4.628643        -0.825419         1.606434
 C         2.560366        -1.190013         0.265282
 H        -0.589680         0.133221        -0.669634
 H         0.308393        -0.691081        -1.909293
 H        -0.153328        -1.504649        -0.460973
 H         2.975353         0.389315        -1.835729
 H         1.785353         1.733002        -1.308909
 H         4.442931         1.687459        -0.032997
 H         2.889700         1.385758         2.293636
 H         4.719989        -1.661911         1.146647
 H         3.166160        -1.477404        -0.623535
 H         2.140947        -1.995643         0.938892
