19
Iteration:   315
 C         0.176414        -0.733333        -0.691030
 C         1.483789         0.001793        -0.200228
 C         2.573189         0.776565        -1.068950
 C         3.647528         0.871906        -0.074702
 C         2.873314         1.052191         1.214589
 O         1.360843         0.905172         1.052196
 C         3.518503        -0.236734         0.925266
 O         4.681647        -0.866170         1.517726
 C         2.357738        -1.123286         0.325079
 H        -0.115330        -1.228806         0.224454
 H        -0.582481         0.049767        -1.061365
 H         0.354814        -1.323760        -1.610911
 H         2.781183         0.044434        -1.933478
 H         2.242892         1.670185        -1.496980
 H         4.662359         1.383019        -0.337804
 H         3.141653         1.721629         1.970071
 H         4.318485        -1.415035         2.286836
 H         2.707787        -1.790828        -0.493422
 H         1.782940        -1.787763         1.102365
