19
Iteration:  3262
 C         0.249400        -0.415413        -0.966208
 C         1.526998        -0.033611        -0.220602
 C         2.540159         0.877500        -1.034087
 C         3.508862         1.047283         0.135445
 C         2.699441         0.852161         1.408589
 O         1.372158         0.560445         1.081777
 C         3.499131        -0.286687         0.882911
 O         4.767766        -0.758861         1.493990
 C         2.487997        -1.232349         0.224817
 H        -0.530428         0.421042        -1.021040
 H         0.542671        -0.600156        -1.960669
 H        -0.189850        -1.400019        -0.598003
 H         2.844509         0.114406        -1.839779
 H         2.025381         1.660258        -1.434652
 H         4.399412         1.479738         0.197299
 H         2.728201         1.386396         2.356230
 H         4.765909        -0.727599         2.461122
 H         2.800469        -1.865615        -0.619164
 H         1.773345        -1.757611         1.005626
