19
Iteration:  1575
 C         0.225256        -0.562939        -0.691393
 C         1.565616        -0.021231        -0.120019
 C         2.592509         0.768528        -1.069828
 C         3.556465         0.909361        -0.036216
 C         2.827786         0.943179         1.263717
 O         1.378794         0.825148         1.012456
 C         3.518564        -0.334086         0.820890
 O         4.657378        -0.714533         1.444551
 C         2.365804        -1.198909         0.387178
 H         0.001692        -1.629306        -0.366033
 H        -0.669478         0.017052        -0.272342
 H         0.311104        -0.488820        -1.710447
 H         2.986640         0.060861        -1.929838
 H         2.106132         1.624740        -1.520400
 H         4.410591         1.651037        -0.225287
 H         3.028288         1.416673         2.226631
 H         4.521806        -1.585250         1.883306
 H         2.592216        -1.944146        -0.372417
 H         1.849109        -1.683191         1.247700
