19
Iteration:  4715
 C         0.167911        -0.331440        -0.870834
 C         1.588344        -0.069881        -0.329336
 C         2.511668         0.856860        -1.116582
 C         3.537079         1.065975         0.089304
 C         2.745357         0.823024         1.406620
 O         1.359598         0.561459         1.149777
 C         3.525670        -0.341336         0.867738
 O         4.692816        -0.762000         1.576448
 C         2.545719        -1.261330         0.173584
 H        -0.192917        -1.216728        -0.305550
 H        -0.376189         0.585853        -0.581103
 H         0.165953        -0.545084        -1.990528
 H         2.687081         0.218535        -1.940410
 H         1.846348         1.834805        -1.264742
 H         4.522940         1.459535        -0.102751
 H         2.928153         1.364809         2.397459
 H         4.570954        -0.392039         2.452219
 H         2.992921        -1.658975        -0.785262
 H         2.095539        -2.107621         0.786201
