19
Iteration:  4547charge 0 multiplicity 1
 C         0.229796        -0.498379        -0.988916
 C         1.546754        -0.088845        -0.267710
 C         2.445704         0.865960        -0.976823
 C         3.495670         0.948060         0.081988
 C         2.835983         0.912872         1.378669
 O         1.357027         0.769741         1.056526
 C         3.527959        -0.372333         0.913703
 O         4.730640        -0.778146         1.502286
 C         2.452654        -1.228275         0.311082
 H         0.259673        -0.192148        -2.046403
 H         0.177660        -1.586169        -0.902309
 H        -0.586355         0.025514        -0.565596
 H         3.003055         0.386070        -1.852698
 H         1.887164         1.724913        -1.185167
 H         4.534531         1.414480        -0.126219
 H         3.031671         1.427720         2.407245
 H         4.618710        -0.553416         2.419328
 H         2.825042        -1.822638        -0.558200
 H         1.969456        -1.914339         0.974336
