19
Iteration:  4321
 C         0.212925        -0.405076        -0.926010
 C         1.504488        -0.146711        -0.252681
 C         2.447793         0.889352        -1.006451
 C         3.514371         1.024205         0.039221
 C         2.714904         0.837443         1.398598
 O         1.436953         0.598573         1.130076
 C         3.568702        -0.320560         0.794385
 O         4.634407        -0.686957         1.726094
 C         2.581698        -1.242691         0.086396
 H        -0.055242        -1.506763        -0.832273
 H        -0.425503         0.307545        -0.345090
 H         0.209529        -0.024688        -1.933097
 H         2.804657         0.503991        -1.923156
 H         1.761692         1.894508        -1.145409
 H         4.260971         1.720895         0.209212
 H         2.978307         1.239276         2.338562
 H         5.036488        -1.506864         1.259229
 H         3.069727        -1.649186        -0.823111
 H         2.215355        -1.953876         0.835085
