19
Iteration:   586charge 0 multiplicity 1
 C         0.128828        -0.673010        -0.647904
 C         1.555492        -0.072205        -0.217508
 C         2.530477         0.878672        -1.070736
 C         3.622051         0.894201        -0.042936
 C         2.802509         1.022600         1.229402
 O         1.421569         0.966272         0.900094
 C         3.501203        -0.268224         0.960094
 O         4.645752        -0.847125         1.485897
 C         2.466388        -1.285610         0.378276
 H        -0.505417        -0.763861         0.200406
 H        -0.449236        -0.078500        -1.407786
 H         0.378640        -1.733182        -0.970620
 H         2.788206         0.484294        -2.139055
 H         1.995105         1.749657        -1.189512
 H         4.510751         1.320453        -0.120465
 H         3.010733         1.463542         2.195552
 H         4.545813        -1.329001         2.279792
 H         3.017313        -1.875141        -0.316513
 H         1.888606        -1.844878         1.146937
