19
Iteration:  2648charge 0 multiplicity 1
 C         0.309040        -0.515582        -0.870579
 C         1.607143        -0.116752        -0.198422
 C         2.464363         0.859808        -1.013435
 C         3.574612         0.967780         0.116137
 C         2.666018         0.911626         1.361429
 O         1.324046         0.753905         0.977862
 C         3.503281        -0.276080         0.920312
 O         4.615612        -0.845852         1.468247
 C         2.584730        -1.210136         0.254998
 H        -0.469091         0.115639        -0.545057
 H         0.431707        -0.393884        -1.979449
 H         0.017152        -1.431041        -0.407909
 H         2.798870         0.484035        -1.995757
 H         1.831349         1.677276        -1.184674
 H         4.414134         1.520326         0.025950
 H         2.923003         1.508282         2.241576
 H         4.832741        -0.540956         2.323914
 H         3.038100        -1.707992        -0.616579
 H         2.170698        -1.968010         1.079886
