19
Iteration:  2195
 C         0.167095        -0.519254        -0.752559
 C         1.594075        -0.117268        -0.239492
 C         2.500987         0.884289        -1.065078
 C         3.546484         1.018501         0.057798
 C         2.736675         0.931720         1.403674
 O         1.389827         0.637382         1.042712
 C         3.518047        -0.271037         0.912131
 O         4.657606        -0.847495         1.525438
 C         2.544935        -1.162162         0.145932
 H         0.289832        -0.817498        -1.866626
 H        -0.175362        -1.424616        -0.277308
 H        -0.651086         0.170979        -0.684443
 H         2.864554         0.426841        -1.972031
 H         1.980331         1.934843        -1.410064
 H         4.503443         1.476577        -0.031462
 H         2.799021         1.622191         2.250888
 H         4.695226        -0.290471         2.317326
 H         3.077882        -1.608887        -0.743585
 H         2.096307        -2.068008         0.709329
