19
Iteration:  4247charge 0 multiplicity 1
 C         0.311037        -0.579706        -0.894662
 C         1.538362        -0.115660        -0.180687
 C         2.563789         0.938818        -0.920666
 C         3.550715         1.124474         0.280977
 C         2.617329         0.917868         1.490582
 O         1.243549         0.671783         1.009523
 C         3.582182        -0.301824         0.842538
 O         4.750995        -0.819116         1.289597
 C         2.519679        -1.203414         0.158969
 H        -0.604385        -0.461328        -0.197848
 H         0.210011         0.184357        -1.779169
 H         0.481301        -1.623137        -1.138527
 H         3.048923         0.406795        -1.765114
 H         2.053940         1.834501        -1.173805
 H         4.311197         1.775556         0.302806
 H         2.603008         1.085380         2.558685
 H         4.492527        -1.467079         1.995539
 H         2.803047        -1.535221        -0.875439
 H         2.028807        -1.962291         0.885967
