19
Iteration:  4568
 C         0.178745        -0.408775        -0.762229
 C         1.536875        -0.098622        -0.217151
 C         2.573793         0.785483        -1.061253
 C         3.609435         0.991307         0.093285
 C         2.635813         0.802822         1.376526
 O         1.358733         0.688257         0.967182
 C         3.505303        -0.276596         0.884636
 O         4.709707        -0.713678         1.526484
 C         2.512406        -1.232758         0.177043
 H         0.228280        -0.215078        -1.848422
 H         0.005936        -1.460948        -0.569592
 H        -0.535821         0.266295        -0.341798
 H         2.951590         0.186196        -1.995776
 H         2.311690         1.759235        -1.323625
 H         4.543631         1.655344         0.199658
 H         2.940672         1.413562         2.281226
 H         4.425251        -0.986590         2.466481
 H         2.824308        -1.835147        -0.658241
 H         2.117590        -1.886393         0.925416
