19
Iteration:  1289
 C         0.183151        -0.580923        -0.668895
 C         1.502519        -0.052703        -0.192857
 C         2.504468         0.839778        -1.121618
 C         3.538588         1.033168         0.007181
 C         2.815872         0.959463         1.228033
 O         1.432630         0.810329         0.952554
 C         3.599433        -0.340465         0.853645
 O         4.647342        -0.897292         1.561995
 C         2.371180        -1.205984         0.398907
 H        -0.180281        -1.455578        -0.184918
 H        -0.593954         0.198879        -0.584598
 H         0.225270        -0.942091        -1.781719
 H         2.943854         0.315581        -2.087985
 H         1.910377         1.636616        -1.327654
 H         4.570308         1.574833         0.014070
 H         2.994361         1.636636         2.044366
 H         5.519454        -0.377514         1.529981
 H         2.709916        -2.057235        -0.271315
 H         1.973536        -1.722944         1.292270
