19
Iteration:  3204charge 0 multiplicity 1
 C         0.194615        -0.468854        -0.851239
 C         1.603047        -0.101062        -0.325601
 C         2.584626         0.906508        -0.992725
 C         3.505912         1.072906         0.067517
 C         2.697797         0.794196         1.433713
 O         1.378437         0.563083         1.036591
 C         3.538964        -0.281530         0.866192
 O         4.675337        -0.741935         1.580047
 C         2.526447        -1.133563         0.161369
 H        -0.370587         0.225812        -1.570640
 H         0.116264        -1.477445        -1.294997
 H        -0.421559        -0.457187         0.011990
 H         2.937109         0.463513        -1.919042
 H         2.062025         1.906917        -1.360667
 H         4.439872         1.839373         0.089681
 H         2.857636         1.273098         2.408381
 H         4.382329        -1.495191         2.172655
 H         2.911721        -1.800546        -0.664791
 H         1.950946        -1.836329         0.879305
