19
Iteration:    39
 C         0.078340        -0.729731        -0.732066
 C         1.446355        -0.063484        -0.157937
 C         2.556429         0.802571        -1.116378
 C         3.588942         0.941201        -0.014162
 C         2.876743         1.072010         1.279380
 O         1.496063         0.877738         0.946740
 C         3.507106        -0.239685         0.915340
 O         4.689191        -0.881738         1.493729
 C         2.390362        -1.125325         0.432041
 H        -0.058856        -1.632673        -0.083197
 H        -0.889633        -0.185163        -0.708352
 H         0.309820        -0.902676        -1.822700
 H         2.907490         0.190134        -1.997481
 H         2.129912         1.720153        -1.573839
 H         4.623181         1.490663        -0.119314
 H         3.027882         1.809910         2.050314
 H         4.463505        -1.723539         1.986958
 H         2.808116        -1.701530        -0.436036
 H         1.925523        -1.637219         1.308741
