19
Iteration:  4535
 C         0.312526        -0.511508        -1.030136
 C         1.506345        -0.120810        -0.220584
 C         2.447174         0.862598        -0.975276
 C         3.558845         0.961055         0.056729
 C         2.732177         0.920096         1.368080
 O         1.425578         0.752141         1.114838
 C         3.494763        -0.287543         0.923766
 O         4.729175        -0.832957         1.485166
 C         2.409482        -1.236492         0.295785
 H         0.419145        -0.201267        -2.089138
 H         0.109437        -1.573351        -1.049596
 H        -0.651139        -0.199013        -0.632040
 H         2.572407         0.552620        -2.118727
 H         1.993774         1.805290        -1.016867
 H         4.492328         1.564729         0.012417
 H         3.153387         1.756518         2.036378
 H         4.808929        -0.632678         2.438253
 H         2.799226        -1.980015        -0.381575
 H         1.830614        -1.609405         1.112114
