19
Iteration:   696charge 0 multiplicity 1
 C         0.123623        -0.447374        -0.800877
 C         1.534618        -0.090983        -0.225828
 C         2.537007         0.653564        -1.111715
 C         3.554014         0.900281        -0.057914
 C         2.822712         0.971202         1.276370
 O         1.466378         0.751219         1.045185
 C         3.552149        -0.258717         0.964689
 O         4.672371        -0.698868         1.471752
 C         2.392799        -1.208637         0.413287
 H        -0.280560        -1.409474        -0.461899
 H        -0.768301         0.290832        -0.490354
 H         0.085095        -0.409802        -1.883019
 H         2.852742        -0.183247        -1.852550
 H         2.180303         1.522044        -1.525651
 H         4.526664         1.522734        -0.263033
 H         3.200965         1.488131         2.166775
 H         4.582443        -0.985033         2.423106
 H         2.849243        -1.916590        -0.235551
 H         1.890878        -1.738996         1.279494
