19
Iteration:   899charge 0 multiplicity 1
 C         0.151358        -0.485876        -0.627949
 C         1.572483        -0.142584        -0.213804
 C         2.487321         0.815647        -1.145518
 C         3.579451         0.980764        -0.078079
 C         2.786383         0.988373         1.228150
 O         1.469322         0.753624         0.957608
 C         3.584399        -0.249673         0.817324
 O         4.601889        -0.812293         1.597143
 C         2.487948        -1.237610         0.471802
 H        -0.185027        -1.444323        -0.216414
 H        -0.655482         0.227707        -0.430861
 H         0.137136        -0.660675        -1.798505
 H         2.883071         0.346190        -1.987806
 H         1.868161         1.715990        -1.539824
 H         4.480941         1.621006        -0.285324
 H         3.139622         1.699395         1.942048
 H         4.276411        -1.669872         1.930290
 H         2.666999        -2.015038        -0.327380
 H         2.001747        -1.661410         1.343372
