19
Iteration:  2332
 C         0.283245        -0.537199        -0.785881
 C         1.555082        -0.100574        -0.187881
 C         2.494134         0.871362        -1.022531
 C         3.579568         1.092608         0.039739
 C         2.734554         0.958246         1.331683
 O         1.378247         0.649220         1.004557
 C         3.530438        -0.275554         0.856073
 O         4.547085        -0.814804         1.640235
 C         2.524962        -1.225662         0.173596
 H        -0.463800         0.269286        -0.806316
 H         0.548965        -0.984915        -1.833092
 H        -0.052687        -1.439923        -0.115962
 H         2.813269         0.310106        -1.998695
 H         2.040849         1.804687        -1.084806
 H         4.373346         1.804475        -0.036380
 H         2.908717         1.559588         2.219104
 H         5.348109        -1.171935         1.089254
 H         2.676450        -1.903256        -0.680330
 H         2.108688        -1.752699         1.009152
