19
Iteration:  1787
 C         0.219088        -0.446728        -0.665502
 C         1.572223        -0.116423        -0.233439
 C         2.447106         0.855922        -1.106673
 C         3.503514         1.037992        -0.049378
 C         2.729414         0.842962         1.260112
 O         1.369684         0.709636         0.979114
 C         3.606410        -0.282288         0.874013
 O         4.622940        -0.859822         1.617198
 C         2.540813        -1.248130         0.346392
 H        -0.279146        -1.339822        -0.390516
 H        -0.426936         0.308083        -0.235953
 H         0.295400        -0.237571        -1.814178
 H         2.897930         0.489848        -1.952084
 H         1.875460         1.835786        -1.336416
 H         4.441406         1.661375        -0.194364
 H         2.979795         1.457169         2.120185
 H         5.496507        -0.418371         1.370146
 H         2.876670        -1.989211        -0.427557
 H         2.070665        -1.848956         1.145223
