19
Iteration:  4311charge 0 multiplicity 1
 C         0.186282        -0.380717        -0.909562
 C         1.574721        -0.098834        -0.202794
 C         2.407041         0.910677        -0.973168
 C         3.556085         1.031809         0.100775
 C         2.763929         0.779300         1.383157
 O         1.342064         0.577913         1.052672
 C         3.626655        -0.289657         0.775829
 O         4.604114        -0.668980         1.668839
 C         2.655896        -1.294386         0.147682
 H        -0.374257        -1.367287        -0.805928
 H        -0.586731         0.370207        -0.530984
 H         0.351087        -0.253192        -1.974552
 H         2.627500         0.563816        -1.965149
 H         1.877500         1.949525        -1.062011
 H         4.253531         1.742228        -0.061347
 H         2.985196         1.235586         2.314208
 H         4.923568        -1.618415         1.609538
 H         2.931730        -1.796436        -0.812782
 H         2.164111        -2.023514         0.820729
