19
Iteration:   425charge 0 multiplicity 1
 C         0.150664        -0.485981        -0.704076
 C         1.489615        -0.105359        -0.150611
 C         2.507832         0.700695        -1.084104
 C         3.617336         1.000432        -0.083287
 C         2.824462         1.033579         1.203248
 O         1.410894         0.762954         0.941970
 C         3.571633        -0.281720         0.914544
 O         4.690640        -0.828633         1.513664
 C         2.419903        -1.200595         0.449100
 H        -0.590969        -0.598512         0.072434
 H        -0.249041         0.436313        -1.347102
 H         0.083908        -1.332546        -1.343498
 H         2.926693         0.014805        -1.887620
 H         2.078837         1.601283        -1.443294
 H         4.503557         1.534620        -0.303039
 H         2.975952         1.691184         2.101199
 H         4.332824        -1.221470         2.312618
 H         2.848877        -1.832360        -0.338873
 H         2.030694        -1.927851         1.273235
