19
Iteration:    97charge 0 multiplicity 1
 C         0.074956        -0.307726        -0.804802
 C         1.496930        -0.184645        -0.209220
 C         2.495807         0.602632        -1.035762
 C         3.589857         0.867410        -0.048660
 C         2.801958         0.901372         1.325922
 O         1.428802         0.813078         1.045332
 C         3.516989        -0.344250         0.918604
 O         4.774660        -0.547261         1.522385
 C         2.443587        -1.331320         0.270598
 H        -0.603510        -0.783334        -0.059327
 H        -0.200251         0.708156        -0.933454
 H        -0.049530        -1.027124        -1.638124
 H         2.902761        -0.110018        -1.875381
 H         2.073137         1.497077        -1.387048
 H         4.471441         1.255123        -0.370635
 H         3.115902         1.581770         2.146725
 H         4.626854        -0.482825         2.456868
 H         2.873365        -2.002009        -0.468837
 H         2.036017        -2.080779         0.972999
