19
Iteration:  2009
 C         0.206264        -0.346154        -0.799937
 C         1.553042        -0.101596        -0.198198
 C         2.480284         0.868381        -1.050345
 C         3.520301         0.951138        -0.006875
 C         2.720513         0.848828         1.372137
 O         1.346900         0.565276         1.065270
 C         3.551582        -0.292367         0.818642
 O         4.692462        -0.794305         1.527599
 C         2.563448        -1.241036         0.259003
 H        -0.051909        -1.504376        -0.583349
 H        -0.590171         0.382072        -0.349493
 H         0.233355        -0.253031        -1.900931
 H         2.871936         0.619979        -2.075191
 H         1.983460         1.882748        -1.252748
 H         4.268282         1.799629         0.016788
 H         2.920122         1.369325         2.285059
 H         5.085286         0.094033         1.865269
 H         2.891311        -2.013674        -0.501688
 H         2.149834        -1.729855         1.205988
