19
Iteration:  2886
 C         0.307684        -0.607138        -0.902514
 C         1.555120        -0.021236        -0.228146
 C         2.495533         0.853460        -1.029231
 C         3.525018         1.025434         0.119476
 C         2.724393         0.976657         1.401730
 O         1.362660         0.744461         1.034008
 C         3.475006        -0.309851         0.919297
 O         4.668554        -0.887750         1.474845
 C         2.506325        -1.147085         0.274400
 H        -0.595990        -0.068665        -1.015465
 H         0.490468        -0.840365        -2.022736
 H        -0.019245        -1.543682        -0.433529
 H         2.926581         0.290818        -1.845064
 H         2.043775         1.871258        -1.383468
 H         4.563971         1.574956        -0.103356
 H         2.973996         1.580041         2.239674
 H         4.518967        -1.094788         2.380317
 H         3.047209        -1.578785        -0.612877
 H         2.016838        -1.894505         0.926293
