19
Iteration:  1855charge 0 multiplicity 1
 C         0.194176        -0.465110        -0.766638
 C         1.557593        -0.162491        -0.213541
 C         2.495030         0.867173        -0.973181
 C         3.554475         0.988541         0.100292
 C         2.710044         0.904963         1.353037
 O         1.337529         0.703825         0.960873
 C         3.546276        -0.326441         0.862960
 O         4.807955        -0.772329         1.393788
 C         2.486716        -1.182741         0.300667
 H        -0.499361        -0.708387         0.048681
 H        -0.435300         0.342608        -1.266230
 H         0.249347        -1.261553        -1.525992
 H         2.875794         0.424819        -1.865277
 H         1.980486         1.879595        -1.106275
 H         4.356071         1.595788        -0.082068
 H         2.786746         1.637005         2.162524
 H         4.622493        -1.331718         2.189063
 H         2.716689        -2.006943        -0.424376
 H         2.033239        -1.718143         1.153376
