19
Iteration:  3786charge 0 multiplicity 1
 C         0.227027        -0.338069        -0.939641
 C         1.577561        -0.120365        -0.222099
 C         2.510247         0.838129        -0.951595
 C         3.507376         1.056476         0.109060
 C         2.645575         0.839743         1.390549
 O         1.329890         0.590438         1.126378
 C         3.559662        -0.345751         0.849241
 O         4.756570        -0.666337         1.512960
 C         2.546003        -1.258684         0.144356
 H        -0.449861         0.398447        -0.571265
 H         0.418634        -0.527163        -1.980213
 H        -0.332409        -1.334197        -0.699846
 H         2.989412         0.279303        -1.825789
 H         2.081044         1.795747        -1.251815
 H         4.447654         1.730757         0.082093
 H         2.884320         1.208368         2.346177
 H         4.393967        -1.311448         2.180069
 H         2.833496        -1.756204        -0.786109
 H         2.009592        -2.080186         0.652254
