19
Iteration:  3556charge 0 multiplicity 1
 C         0.297905        -0.513851        -0.951374
 C         1.549644        -0.068492        -0.178027
 C         2.499522         0.830901        -0.953333
 C         3.525565         1.067482         0.144144
 C         2.698777         0.848347         1.428099
 O         1.370268         0.698522         1.055579
 C         3.566642        -0.256457         0.861151
 O         4.683740        -0.870210         1.412724
 C         2.453417        -1.145778         0.249158
 H        -0.654694         0.110590        -0.828147
 H         0.598335        -0.585428        -1.994563
 H         0.155820        -1.685902        -0.765187
 H         2.852987         0.313669        -1.908546
 H         2.101671         1.741847        -1.389245
 H         4.435450         1.757236         0.028832
 H         2.729932         1.405772         2.305996
 H         4.678415        -0.629533         2.399577
 H         2.693172        -1.778903        -0.578347
 H         1.985164        -1.805923         0.969141
