19
Iteration:  3697
 C         0.325397        -0.515372        -0.980582
 C         1.565762        -0.054438        -0.287830
 C         2.519775         0.941967        -1.007271
 C         3.504913         1.050536         0.131310
 C         2.698753         0.837474         1.428279
 O         1.309313         0.649625         1.214861
 C         3.575405        -0.247499         0.895661
 O         4.700528        -0.874689         1.388611
 C         2.486020        -1.168595         0.243555
 H        -0.260501         0.124111        -1.618104
 H         0.649302        -1.325031        -1.616527
 H        -0.400803        -1.176918        -0.379786
 H         2.862537         0.592768        -1.950225
 H         1.881253         1.781172        -1.257313
 H         4.372455         1.549251         0.154843
 H         2.874157         1.639342         2.212864
 H         4.727399        -0.878672         2.368908
 H         2.754159        -1.821634        -0.570893
 H         1.809840        -1.769874         0.855720
