19
Iteration:   507
 C         0.140049        -0.254828        -0.709638
 C         1.519610        -0.124509        -0.180495
 C         2.514642         0.620376        -1.187046
 C         3.573828         0.796027        -0.077480
 C         2.772457         0.959478         1.145480
 O         1.359553         0.708978         1.000078
 C         3.534156        -0.295770         0.979067
 O         4.763619        -0.645516         1.566998
 C         2.473737        -1.277788         0.448862
 H        -0.370506        -1.183048        -0.348741
 H        -0.443934         0.536099        -0.430280
 H         0.077598        -0.207864        -1.873876
 H         2.791661         0.120377        -2.068164
 H         2.007028         1.578244        -1.484744
 H         4.564893         1.412880        -0.274963
 H         2.899700         1.643458         1.998429
 H         4.820985        -0.920828         2.465329
 H         2.923236        -1.962304        -0.324788
 H         1.958340        -1.864657         1.171092
