19
Iteration:  3405
 C         0.286804        -0.480013        -0.933004
 C         1.611052        -0.082227        -0.222675
 C         2.541483         0.860560        -0.975402
 C         3.498835         1.021809         0.189755
 C         2.684988         0.857901         1.452930
 O         1.320744         0.740875         1.061393
 C         3.510585        -0.285126         0.839665
 O         4.668532        -0.830251         1.454225
 C         2.504019        -1.291172         0.208853
 H        -0.120023         0.335619        -1.560551
 H         0.297302        -1.378265        -1.602897
 H        -0.601803        -0.728221        -0.307585
 H         3.113896         0.265862        -1.821403
 H         1.944692         1.675576        -1.328240
 H         4.406635         1.783314         0.232385
 H         2.864756         1.359012         2.398366
 H         5.297857        -0.101342         1.733516
 H         2.922708        -1.761011        -0.720435
 H         1.926083        -2.002082         0.938338
