19
Iteration:  1492
 C         0.070285        -0.414043        -0.740133
 C         1.475853        -0.054327        -0.190330
 C         2.507463         0.742561        -1.088346
 C         3.586936         0.953260        -0.048162
 C         2.834912         0.894033         1.248322
 O         1.460710         0.687008         1.054538
 C         3.584146        -0.368451         0.880344
 O         4.732520        -0.682314         1.588770
 C         2.396214        -1.262202         0.232378
 H        -0.532098        -0.888578         0.093955
 H        -0.468402         0.472714        -1.096860
 H         0.049519        -1.157372        -1.635971
 H         2.807517         0.114474        -1.839199
 H         1.953276         1.656808        -1.518287
 H         4.527661         1.510388        -0.055647
 H         3.020454         1.510644         2.157786
 H         4.663719        -0.237545         2.485398
 H         2.896794        -1.806826        -0.570724
 H         2.064439        -1.897948         1.084435
