19
Iteration:  2000
 C         0.226384        -0.380289        -0.818854
 C         1.505379        -0.092770        -0.232836
 C         2.464663         0.882505        -1.045342
 C         3.485815         0.966026         0.051803
 C         2.719439         0.917703         1.356994
 O         1.341516         0.572610         1.050850
 C         3.594253        -0.289262         0.931685
 O         4.771851        -0.838341         1.471095
 C         2.519247        -1.215434         0.254442
 H        -0.223112        -1.438272        -0.503203
 H        -0.555841         0.368426        -0.504979
 H         0.319224        -0.373217        -1.888240
 H         2.818785         0.297502        -2.029726
 H         1.902991         1.783547        -1.179718
 H         4.348302         1.617665        -0.061944
 H         2.780957         1.581382         2.203485
 H         5.188597        -0.147760         2.121551
 H         2.965678        -1.793789        -0.568306
 H         1.997539        -1.872970         1.013685
