19
Iteration:  4943
 C         0.294964        -0.443149        -0.929938
 C         1.494387        -0.117093        -0.092881
 C         2.524417         0.793865        -1.056685
 C         3.533690         0.998986         0.010713
 C         2.715615         0.817544         1.425076
 O         1.386962         0.781589         1.044335
 C         3.562768        -0.314162         0.890985
 O         4.756823        -0.737800         1.441436
 C         2.364445        -1.229506         0.362029
 H         0.042685        -1.547372        -1.068165
 H        -0.639799        -0.024314        -0.598372
 H         0.517104        -0.200148        -2.004683
 H         2.831924         0.367658        -2.108650
 H         2.037836         1.706515        -1.447490
 H         4.329419         1.681368        -0.092844
 H         3.019504         1.524819         2.181357
 H         4.683685        -1.392044         2.166864
 H         2.549153        -1.934550        -0.452743
 H         1.985411        -1.712294         1.273994
