19
Iteration:  4800charge 0 multiplicity 1
 C         0.225556        -0.456255        -0.852818
 C         1.576518        -0.083217        -0.258071
 C         2.624963         0.857576        -0.979285
 C         3.499402         1.040416         0.217019
 C         2.614650         0.876033         1.520319
 O         1.248655         0.718749         1.038065
 C         3.556327        -0.283052         0.851953
 O         4.760339        -0.808076         1.277898
 C         2.529790        -1.219786         0.286208
 H        -0.658775        -0.437305        -0.241612
 H        -0.056331         0.131956        -1.741694
 H         0.322378        -1.491517        -1.238755
 H         3.189720         0.241916        -1.741227
 H         2.398551         1.646707        -1.617646
 H         4.443505         1.618745         0.045649
 H         2.803999         1.483144         2.463907
 H         4.399113        -1.545463         1.823219
 H         2.877837        -1.978058        -0.423373
 H         2.144938        -1.771327         1.118679
