19
Iteration:  2748charge 0 multiplicity 1
 C         0.288557        -0.641015        -0.841554
 C         1.512945        -0.032447        -0.260257
 C         2.565360         0.893101        -1.042528
 C         3.556692         1.055598         0.117280
 C         2.726619         0.900942         1.390192
 O         1.308124         0.679424         1.043520
 C         3.526972        -0.296742         0.896948
 O         4.683965        -0.842729         1.480209
 C         2.467557        -1.083687         0.211146
 H        -0.100010         0.058572        -1.652066
 H         0.611949        -1.633843        -1.213143
 H        -0.363934        -0.763279        -0.030201
 H         3.018920         0.295869        -1.924616
 H         2.198624         1.760960        -1.419292
 H         4.484434         1.809467         0.157613
 H         2.896216         1.387026         2.333171
 H         4.399278        -1.307069         2.332206
 H         2.871751        -1.575051        -0.697796
 H         1.907577        -1.722610         1.006156
