19
Iteration:  1449charge 0 multiplicity 1
 C         0.164188        -0.476949        -0.661040
 C         1.571684        -0.121759        -0.218094
 C         2.463704         0.769719        -1.111770
 C         3.541288         1.045616        -0.006898
 C         2.807263         0.995466         1.309689
 O         1.459037         0.719149         1.000521
 C         3.513484        -0.247707         0.894204
 O         4.618489        -0.884532         1.470780
 C         2.519812        -1.227282         0.295075
 H        -0.522921        -0.457432         0.214975
 H        -0.127844         0.050184        -1.544779
 H         0.239089        -1.629569        -0.849368
 H         2.860397         0.238525        -1.913141
 H         1.900727         1.707522        -1.467866
 H         4.501715         1.626555        -0.148044
 H         3.051980         1.692481         2.135173
 H         4.694094        -0.616502         2.446340
 H         2.866029        -1.851382        -0.554698
 H         1.859415        -1.718548         1.048888
