19
Iteration:  1194
 C         0.188897        -0.438918        -0.696510
 C         1.512654        -0.046658        -0.170135
 C         2.459278         0.745111        -1.058190
 C         3.559358         0.986965        -0.077756
 C         2.825386         0.936625         1.260683
 O         1.455148         0.714408         1.043671
 C         3.520119        -0.338334         0.815498
 O         4.629743        -0.700983         1.680685
 C         2.452809        -1.276838         0.250818
 H        -0.529467        -0.642920         0.072535
 H        -0.337847         0.173940        -1.521153
 H         0.185473        -1.495023        -0.961766
 H         2.786957         0.201257        -1.944955
 H         2.187238         1.855789        -1.364142
 H         4.603640         1.501399        -0.255847
 H         3.033430         1.562855         2.101576
 H         5.268929        -1.196547         1.091656
 H         2.909397        -1.785381        -0.642887
 H         1.847794        -1.956182         0.881883
