19
Iteration:  3196
 C         0.159158        -0.528405        -0.862477
 C         1.562647        -0.047979        -0.308572
 C         2.586780         0.932882        -1.074917
 C         3.586345         1.096694         0.110622
 C         2.683642         0.786245         1.401161
 O         1.379508         0.580757         1.080613
 C         3.556183        -0.291559         0.923348
 O         4.657631        -0.761773         1.560115
 C         2.520907        -1.138366         0.139644
 H        -0.329577         0.181342        -1.650847
 H         0.276074        -1.522579        -1.158079
 H        -0.497983        -0.660268         0.055975
 H         2.933966         0.335131        -2.002834
 H         2.201869         1.864402        -1.309309
 H         4.337260         1.896404         0.237933
 H         2.854597         1.424165         2.304915
 H         4.322423        -1.545563         2.032323
 H         3.005177        -1.696791        -0.685344
 H         1.975330        -1.849070         0.907204
