19
Iteration:  4431
 C         0.179476        -0.404276        -0.872718
 C         1.547757        -0.100988        -0.194106
 C         2.452134         0.785419        -1.033017
 C         3.504305         1.087773         0.053776
 C         2.754231         0.854524         1.288724
 O         1.450492         0.650436         1.024592
 C         3.543159        -0.345086         0.841817
 O         4.694884        -0.753126         1.640884
 C         2.578776        -1.227000         0.253751
 H         0.279492        -0.104244        -1.935080
 H        -0.191099        -1.477335        -0.945842
 H        -0.684479         0.210807        -0.660354
 H         2.861345         0.295210        -1.912732
 H         1.776048         1.785460        -1.177937
 H         4.481516         1.591098        -0.058131
 H         2.911060         1.452484         2.219875
 H         4.328448        -1.066212         2.449464
 H         2.825192        -1.793138        -0.684262
 H         1.915382        -1.813853         0.931867
