19
Iteration:  2660
 C         0.199481        -0.459449        -0.889714
 C         1.515929        -0.135089        -0.245839
 C         2.523812         0.793633        -0.962826
 C         3.565005         0.973908         0.071236
 C         2.683788         0.894035         1.384021
 O         1.325312         0.711299         1.013256
 C         3.554768        -0.273913         0.905338
 O         4.739013        -0.793373         1.523433
 C         2.519682        -1.211492         0.219759
 H        -0.435062         0.419889        -0.815136
 H         0.348601        -0.617184        -1.957573
 H        -0.249300        -1.362945        -0.701479
 H         2.936048         0.303255        -1.908803
 H         2.129968         1.728290        -1.161635
 H         4.358734         1.710796         0.114027
 H         2.778193         1.596943         2.235981
 H         4.721460        -0.380875         2.457711
 H         2.975830        -1.720052        -0.664490
 H         2.193661        -2.106064         0.959633
