19
Iteration:  4877
 C         0.159990        -0.408583        -0.709274
 C         1.569661        -0.106204        -0.253724
 C         2.491015         0.812197        -1.038314
 C         3.496784         1.095610         0.066493
 C         2.782551         0.843484         1.353939
 O         1.405731         0.652264         0.983698
 C         3.580214        -0.291373         0.848055
 O         4.652789        -0.825682         1.644633
 C         2.571274        -1.177527         0.051208
 H        -0.198004        -1.352036        -0.270797
 H        -0.395095         0.429702        -0.310938
 H         0.019750        -0.704819        -1.788961
 H         3.115769         0.277186        -1.921546
 H         2.003947         1.728594        -1.274157
 H         4.512723         1.554374        -0.179649
 H         2.784976         1.277357         2.304961
 H         4.113263        -0.939390         2.497093
 H         2.860958        -1.785115        -0.807378
 H         1.971166        -1.679921         0.804315
