19
Iteration:   863
 C         0.139731        -0.628774        -0.664991
 C         1.453267        -0.013500        -0.130280
 C         2.539555         0.743464        -1.104131
 C         3.561111         0.951107        -0.020844
 C         2.781956         1.014229         1.274071
 O         1.452595         0.937097         0.979349
 C         3.489480        -0.350994         0.897119
 O         4.708574        -0.814735         1.547036
 C         2.445500        -1.185051         0.264015
 H        -0.176396        -1.404385         0.155557
 H        -0.618835         0.116731        -0.863015
 H         0.464303        -1.216104        -1.633353
 H         2.888509         0.011383        -1.927739
 H         2.093245         1.625866        -1.502546
 H         4.576338         1.406266        -0.145788
 H         3.165004         1.769052         1.987872
 H         4.478330        -1.648532         1.952756
 H         3.002648        -1.696945        -0.617762
 H         2.157379        -2.026838         0.922782
