19
Iteration:  1672
 C         0.224791        -0.574426        -0.771187
 C         1.508994        -0.013224        -0.154857
 C         2.483317         0.757018        -1.071540
 C         3.563558         1.027047         0.039133
 C         2.779404         0.938465         1.365785
 O         1.359568         0.774553         1.025428
 C         3.560476        -0.321954         0.874902
 O         4.717616        -0.851834         1.490551
 C         2.368331        -1.171695         0.307426
 H        -0.539578        -0.401409         0.015960
 H        -0.109249         0.180327        -1.552627
 H         0.428258        -1.523843        -1.148458
 H         3.025190         0.020572        -1.777420
 H         2.232126         1.566672        -1.637196
 H         4.428019         1.727857        -0.019013
 H         2.984493         1.449559         2.316385
 H         5.413823        -0.700902         0.783663
 H         2.609347        -1.817877        -0.534461
 H         1.958521        -1.715163         1.156909
