19
Iteration:  2635
 C         0.353463        -0.594460        -0.787884
 C         1.606560        -0.066381        -0.230649
 C         2.494953         0.927226        -1.034900
 C         3.485465         1.103953         0.029669
 C         2.753354         0.957382         1.379234
 O         1.361519         0.707539         0.963397
 C         3.491789        -0.275299         0.951576
 O         4.589307        -0.942149         1.476539
 C         2.512649        -1.214503         0.278978
 H        -0.447875         0.010134        -0.482642
 H         0.336913        -0.638602        -1.972056
 H         0.224402        -1.738802        -0.738714
 H         2.867450         0.506917        -1.904171
 H         2.046267         1.942798        -1.224638
 H         4.421055         1.553612         0.020720
 H         2.795586         1.464181         2.331133
 H         4.781726        -0.487895         2.366545
 H         3.042802        -1.810527        -0.460907
 H         1.873589        -1.862433         0.918900
