19
Iteration:  1012
 C         0.192236        -0.627122        -0.667293
 C         1.582165        -0.061274        -0.195726
 C         2.480465         0.756768        -1.068970
 C         3.547229         0.941142        -0.019442
 C         2.813266         1.073541         1.304520
 O         1.451068         0.771215         1.019805
 C         3.524857        -0.223226         0.933645
 O         4.586961        -0.804021         1.506363
 C         2.485555        -1.161936         0.248970
 H        -0.570243        -0.638663         0.176852
 H        -0.219075         0.021852        -1.503733
 H         0.354613        -1.580227        -1.030057
 H         2.692428         0.165123        -1.990017
 H         2.092476         1.723646        -1.356855
 H         4.623742         1.332253        -0.296634
 H         3.236758         1.745805         2.044087
 H         4.328955        -1.683482         1.681669
 H         2.799535        -1.730498        -0.596594
 H         2.081970        -1.951149         0.956272
