19
Iteration:  2089
 C         0.244649        -0.578212        -0.818090
 C         1.561000        -0.133440        -0.213922
 C         2.498970         0.857714        -0.978552
 C         3.502640         1.174829         0.165043
 C         2.745741         0.927912         1.376104
 O         1.413053         0.717841         1.008480
 C         3.532001        -0.289702         0.831064
 O         4.699995        -0.854954         1.368060
 C         2.463706        -1.210659         0.275997
 H         0.251672        -1.739895        -0.830768
 H        -0.542141        -0.250347        -0.160445
 H         0.142105        -0.090420        -1.839798
 H         3.091442         0.405959        -1.939437
 H         1.940607         1.696527        -1.248136
 H         4.263606         1.939141         0.154493
 H         2.803290         1.623576         2.239609
 H         4.291380        -1.350052         2.191646
 H         2.844944        -1.922210        -0.433934
 H         2.061751        -1.854283         1.112148
