19
Iteration:   858charge 0 multiplicity 1
 C         0.131240        -0.620907        -0.686791
 C         1.467274        -0.013548        -0.141084
 C         2.552493         0.713295        -1.068849
 C         3.538741         1.014017        -0.017372
 C         2.793938         0.949939         1.274295
 O         1.478633         0.942366         0.968504
 C         3.477842        -0.323109         0.862459
 O         4.722146        -0.806206         1.532862
 C         2.442151        -1.237651         0.266083
 H        -0.233375        -1.172942         0.111351
 H        -0.625926         0.164494        -0.953190
 H         0.377168        -1.236430        -1.472602
 H         2.843250         0.020171        -1.842978
 H         2.031243         1.652658        -1.457376
 H         4.546996         1.356788        -0.117058
 H         2.941146         1.716683         2.032146
 H         4.551214        -1.605525         2.141642
 H         2.965748        -1.696136        -0.506845
 H         2.086802        -1.905015         1.103213
