19
Iteration:  1405charge 0 multiplicity 1
 C         0.200361        -0.506252        -0.756492
 C         1.549119        -0.066386        -0.169198
 C         2.458866         0.726262        -1.049455
 C         3.511444         0.890409         0.025478
 C         2.804681         0.982031         1.355060
 O         1.418440         0.845205         0.966714
 C         3.510294        -0.306437         0.890371
 O         4.754273        -0.746350         1.401309
 C         2.431273        -1.232892         0.368551
 H        -0.614582        -0.605263         0.042642
 H        -0.078280         0.220847        -1.491187
 H         0.301259        -1.577885        -1.162256
 H         2.799147         0.185778        -1.888344
 H         1.934220         1.727977        -1.324486
 H         4.462365         1.500109        -0.235021
 H         2.852511         1.606706         2.234202
 H         4.670118        -1.454450         2.126830
 H         2.927954        -1.894651        -0.378299
 H         1.931978        -1.878252         1.138682
