19
Iteration:  1763charge 0 multiplicity 1
 C         0.056857        -0.365625        -0.653980
 C         1.510373        -0.138113        -0.284902
 C         2.502355         0.729169        -1.055065
 C         3.610578         0.916108         0.043849
 C         2.747594         0.931763         1.298043
 O         1.436681         0.698567         0.975874
 C         3.541135        -0.302799         0.955381
 O         4.663265        -0.728433         1.570819
 C         2.542056        -1.283972         0.153396
 H        -0.271743        -1.286212        -0.128738
 H        -0.602119         0.387455        -0.288657
 H         0.051307        -0.488671        -1.781757
 H         2.898189         0.416704        -2.001387
 H         2.001966         1.685093        -1.161918
 H         4.612888         1.489416        -0.156959
 H         2.914683         1.496283         2.229487
 H         4.982592         0.069611         1.964066
 H         2.976840        -1.728732        -0.734100
 H         2.241997        -2.164374         0.760318
