19
Iteration:  1778
 C         0.198203        -0.392895        -0.654099
 C         1.630942        -0.161932        -0.222265
 C         2.426788         0.823161        -1.056042
 C         3.521099         0.943614        -0.014430
 C         2.755344         0.888040         1.330237
 O         1.393403         0.720579         0.902392
 C         3.514782        -0.303076         0.838178
 O         4.637546        -0.812206         1.611976
 C         2.580866        -1.264013         0.276494
 H        -0.259403        -1.328915        -0.389405
 H        -0.310528         0.505518        -0.188622
 H        -0.202782        -0.298515        -1.699457
 H         2.704569         0.369388        -2.012711
 H         1.810547         1.825763        -1.205429
 H         4.358868         1.603138        -0.079547
 H         2.893252         1.535721         2.181434
 H         5.415900        -0.151845         1.660822
 H         3.091011        -1.886287        -0.528680
 H         2.005285        -1.869579         0.982311
