19
Iteration:  3639
 C         0.136741        -0.357877        -0.850584
 C         1.588996        -0.061190        -0.258611
 C         2.562685         0.815608        -1.026549
 C         3.508570         1.010563         0.138862
 C         2.709543         0.822471         1.403402
 O         1.316632         0.487357         1.030659
 C         3.571659        -0.327502         0.967498
 O         4.736494        -0.638584         1.513376
 C         2.528307        -1.181391         0.131025
 H        -0.201007         0.393676        -1.613051
 H         0.125673        -1.302269        -1.358831
 H        -0.534880        -0.283041        -0.046154
 H         3.130746         0.212142        -1.687656
 H         2.148768         1.837850        -1.406548
 H         4.424632         1.811265         0.133993
 H         2.800925         1.362511         2.302238
 H         4.600269        -1.523119         1.951660
 H         2.958969        -1.549965        -0.845302
 H         1.957059        -1.946215         0.736383
