19
Iteration:  1812charge 0 multiplicity 1
 C         0.181755        -0.645239        -0.883205
 C         1.495772        -0.011453        -0.195266
 C         2.472188         0.761500        -0.982796
 C         3.575911         1.018591         0.017387
 C         2.828003         0.962093         1.350896
 O         1.432885         0.709727         1.122715
 C         3.596288        -0.204794         0.848916
 O         4.629123        -0.807088         1.525292
 C         2.417162        -1.131378         0.291489
 H        -0.291329        -1.510934        -0.436651
 H        -0.701402         0.077102        -0.695595
 H         0.361592        -0.663175        -1.925577
 H         2.930997         0.035472        -1.699878
 H         2.097793         1.695966        -1.506949
 H         4.422173         1.561890        -0.087918
 H         3.086366         1.631450         2.158456
 H         5.128544        -1.409817         0.872851
 H         2.790866        -1.838392        -0.509335
 H         1.914310        -1.763023         1.033590
