19
Iteration:  3092
 C         0.137572        -0.269499        -0.872000
 C         1.592634        -0.189010        -0.268124
 C         2.492653         0.763600        -0.964392
 C         3.527215         1.017372         0.116197
 C         2.727162         0.898538         1.385063
 O         1.367025         0.652459         0.963617
 C         3.466557        -0.342583         0.874398
 O         4.716808        -0.636325         1.573368
 C         2.614047        -1.367821         0.211314
 H        -0.450095         0.472916        -0.556343
 H         0.351408        -0.104856        -1.975651
 H        -0.222307        -1.260540        -0.613477
 H         2.860012         0.327933        -1.821643
 H         1.883823         1.754219        -1.190187
 H         4.407240         1.407707        -0.084580
 H         2.608243         1.352744         2.399406
 H         4.545404        -1.161598         2.324988
 H         3.160203        -1.676525        -0.750345
 H         2.359655        -2.252368         0.815624
