19
Iteration:  3619charge 0 multiplicity 1
 C         0.171528        -0.396417        -0.788283
 C         1.524496        -0.146812        -0.295136
 C         2.571774         0.905994        -1.067781
 C         3.511330         1.079938         0.134832
 C         2.647303         0.829699         1.412393
 O         1.364299         0.612835         1.058640
 C         3.559447        -0.285414         0.792750
 O         4.703099        -0.731430         1.596687
 C         2.633537        -1.277073         0.100980
 H        -0.329427         0.427398        -1.385255
 H         0.030861        -1.226053        -1.399329
 H        -0.583403        -0.531386         0.029704
 H         2.908666         0.305515        -1.823267
 H         2.096747         1.909491        -1.352669
 H         4.495138         1.746771         0.169546
 H         2.751258         1.159182         2.393805
 H         4.439159        -1.432584         2.308534
 H         3.050383        -1.754636        -0.801863
 H         2.171334        -1.980562         0.826351
