19
Iteration:  1121charge 0 multiplicity 1
 C         0.112515        -0.445594        -0.787237
 C         1.507949        -0.076984        -0.241460
 C         2.542497         0.702323        -1.143000
 C         3.543462         0.890026        -0.017747
 C         2.793133         0.896888         1.358651
 O         1.408426         0.835126         1.027283
 C         3.543123        -0.279620         0.921298
 O         4.711914        -0.782626         1.522973
 C         2.437530        -1.242336         0.419755
 H        -0.252200        -1.431841        -0.317843
 H        -0.716313         0.324008        -0.673523
 H         0.098031        -0.721930        -1.806258
 H         2.873557         0.114102        -1.957349
 H         1.932554         1.560827        -1.511908
 H         4.488346         1.502444        -0.304272
 H         3.049561         1.590166         2.138631
 H         5.518723        -0.263286         1.237467
 H         2.876907        -2.013707        -0.160369
 H         1.979975        -1.593213         1.361244
