19
Iteration:  3397charge 0 multiplicity 1
 C         0.250316        -0.442331        -0.919382
 C         1.518928        -0.105984        -0.227940
 C         2.547877         0.864419        -0.976183
 C         3.503325         1.002947         0.154776
 C         2.697601         0.846683         1.374466
 O         1.340444         0.672113         1.057644
 C         3.525948        -0.358243         0.938063
 O         4.657479        -0.797664         1.483007
 C         2.523204        -1.188383         0.222700
 H         0.022611         0.389591        -1.550607
 H         0.547017        -1.167116        -1.839093
 H        -0.506316        -0.739998        -0.224287
 H         2.947750         0.354105        -1.851781
 H         2.027233         1.755851        -1.305053
 H         4.367073         1.721293         0.227812
 H         2.881964         1.366468         2.286260
 H         5.398301        -0.095114         1.504014
 H         2.957542        -1.775701        -0.647130
 H         2.112557        -1.993753         0.888004
