19
Iteration:   502
 C         0.118031        -0.345728        -0.741299
 C         1.523319        -0.129383        -0.194579
 C         2.564207         0.680949        -1.187785
 C         3.554323         0.797983        -0.108275
 C         2.797186         0.934927         1.197850
 O         1.381152         0.763690         1.022342
 C         3.510270        -0.323168         0.970349
 O         4.767715        -0.633382         1.557056
 C         2.469169        -1.251871         0.452338
 H        -0.335972        -1.245482        -0.344622
 H        -0.610111         0.564453        -0.409547
 H        -0.057932        -0.241914        -1.755039
 H         2.848645         0.008404        -2.095134
 H         2.065588         1.595585        -1.530312
 H         4.433305         1.354456        -0.146984
 H         3.098891         1.673568         1.918068
 H         4.604001        -0.979658         2.507275
 H         2.771273        -1.968547        -0.312980
 H         1.907807        -1.963230         1.162242
