19
Iteration:   634charge 0 multiplicity 1
 C         0.089983        -0.423772        -0.720117
 C         1.511259        -0.066449        -0.187236
 C         2.575494         0.689705        -1.138815
 C         3.602919         0.907256        -0.060484
 C         2.818462         0.989921         1.277841
 O         1.402549         0.703806         1.069344
 C         3.506873        -0.241703         0.854982
 O         4.662970        -0.706466         1.537387
 C         2.488054        -1.261255         0.364292
 H        -0.676032        -0.772684         0.059653
 H        -0.361999         0.521136        -1.193808
 H         0.219211        -1.238965        -1.406059
 H         2.767970        -0.190509        -1.920427
 H         2.263369         1.538353        -1.888791
 H         4.651604         1.448433        -0.312371
 H         3.012158         1.720081         2.068373
 H         4.489603        -1.182588         2.399480
 H         2.906464        -1.831126        -0.513345
 H         2.102457        -1.844473         1.244192
