19
Iteration:  2681
 C         0.141876        -0.333205        -0.915591
 C         1.564149        -0.038869        -0.273927
 C         2.505411         0.805297        -1.112247
 C         3.505039         1.039804         0.092730
 C         2.703545         0.822935         1.359387
 O         1.358668         0.532850         1.063996
 C         3.581970        -0.346834         0.932952
 O         4.775847        -0.651640         1.587932
 C         2.478418        -1.253537         0.226955
 H        -0.289879         0.639778        -1.128865
 H         0.269411        -0.938542        -1.867888
 H        -0.447264        -0.995235        -0.313960
 H         3.089855         0.166687        -1.804909
 H         2.051459         1.584954        -1.628615
 H         4.432589         1.580466         0.123163
 H         2.930417         1.287296         2.343946
 H         4.595501        -0.735897         2.525368
 H         2.866261        -1.883792        -0.582194
 H         2.123432        -1.908813         1.109131
