19
Iteration:  1442
 C         0.166842        -0.549917        -0.646016
 C         1.526325        -0.041328        -0.265686
 C         2.523511         0.736316        -1.109635
 C         3.539963         1.075055         0.018441
 C         2.799337         1.047534         1.320251
 O         1.436059         0.710756         1.081365
 C         3.566396        -0.286043         0.844294
 O         4.624740        -0.891027         1.451943
 C         2.459271        -1.214986         0.292206
 H        -0.593486        -0.391030         0.058603
 H        -0.105496        -0.025864        -1.566635
 H         0.216720        -1.571343        -1.009794
 H         3.034813         0.116455        -1.988121
 H         2.194642         1.636665        -1.532246
 H         4.330864         1.657680        -0.260587
 H         3.068829         1.729271         2.144351
 H         4.548195        -0.622058         2.414561
 H         2.843219        -1.915442        -0.477023
 H         2.047260        -1.688023         1.163876
