19
Iteration:  4248charge 0 multiplicity 1
 C         0.304472        -0.577496        -0.889446
 C         1.545246        -0.111222        -0.181526
 C         2.562332         0.940465        -0.916698
 C         3.554435         1.132052         0.276649
 C         2.606334         0.914829         1.482194
 O         1.244479         0.669615         1.008581
 C         3.583367        -0.304472         0.848836
 O         4.754665        -0.815048         1.289192
 C         2.515169        -1.199554         0.165325
 H        -0.592560        -0.482441        -0.201769
 H         0.209580         0.173100        -1.766505
 H         0.464929        -1.622901        -1.171161
 H         3.047196         0.360508        -1.772750
 H         2.084851         1.804281        -1.181190
 H         4.350183         1.771447         0.306408
 H         2.618617         1.041777         2.549008
 H         4.460091        -1.507717         1.980067
 H         2.822517        -1.502041        -0.865218
 H         2.029832        -1.995998         0.858871
