19
Iteration:  4013
 C         0.236977        -0.450057        -0.844754
 C         1.480023        -0.099711        -0.204595
 C         2.533432         1.003059        -1.041562
 C         3.531421         1.029172         0.114183
 C         2.711462         0.843070         1.405470
 O         1.352354         0.531697         1.076374
 C         3.583641        -0.309151         0.878218
 O         4.691694        -0.738556         1.580107
 C         2.571116        -1.218682         0.032612
 H        -0.583065         0.038485        -0.303958
 H         0.051176        -0.231788        -1.886660
 H        -0.109128        -1.530600        -0.595001
 H         2.900921         0.603346        -1.933420
 H         2.024651         2.003245        -1.205049
 H         4.378509         1.660123         0.270440
 H         2.910277         1.422496         2.367419
 H         4.377023        -1.460194         2.106454
 H         3.032960        -1.420871        -0.959350
 H         2.076556        -2.106108         0.492751
