19
Iteration:  4238charge 0 multiplicity 1
 C         0.333371        -0.558714        -0.922352
 C         1.545607        -0.077321        -0.190811
 C         2.531542         0.952389        -0.908061
 C         3.472550         1.072383         0.277590
 C         2.659984         0.875209         1.515353
 O         1.271887         0.668557         1.031970
 C         3.538633        -0.285393         0.820214
 O         4.745535        -0.844016         1.305551
 C         2.550423        -1.191099         0.136446
 H        -0.568098        -0.407775        -0.301202
 H         0.098203        -0.080168        -1.926011
 H         0.386184        -1.626677        -1.151246
 H         3.116203         0.698211        -1.874501
 H         2.010518         1.803435        -1.124209
 H         4.248746         1.763491         0.259695
 H         2.733404         1.487039         2.409586
 H         4.686387        -1.258283         2.191142
 H         2.810440        -1.916465        -0.663896
 H         2.150764        -1.860991         0.964181
