19
Iteration:  2979
 C         0.180414        -0.350182        -0.880255
 C         1.543486        -0.135674        -0.270474
 C         2.591713         0.835701        -1.019441
 C         3.550637         1.065482         0.167638
 C         2.705735         0.784331         1.412974
 O         1.333520         0.597737         1.041651
 C         3.590759        -0.306924         0.819244
 O         4.668554        -0.621726         1.486297
 C         2.510728        -1.317612         0.235077
 H         0.022476         0.321952        -1.815803
 H         0.042162        -1.289247        -1.362897
 H        -0.660453        -0.106820        -0.095949
 H         3.069520         0.144632        -1.875127
 H         2.060675         1.718184        -1.362417
 H         4.490474         1.732053         0.047504
 H         2.874500         1.145287         2.407256
 H         4.407557        -1.093978         2.341765
 H         2.969443        -1.983486        -0.464693
 H         2.147160        -1.860941         1.082444
