19
Iteration:  3383
 C         0.241366        -0.348884        -0.950269
 C         1.555612        -0.056074        -0.198592
 C         2.479978         0.864917        -1.012995
 C         3.547571         0.956952         0.070467
 C         2.686250         0.853845         1.400222
 O         1.321153         0.537671         1.024180
 C         3.506438        -0.257192         0.950973
 O         4.729107        -0.814828         1.612027
 C         2.531466        -1.202820         0.221506
 H        -0.362637         0.535174        -1.237390
 H         0.412284        -1.105615        -1.775259
 H        -0.516681        -0.971886        -0.378928
 H         2.831866         0.381969        -2.039376
 H         2.087195         1.853089        -1.146549
 H         4.508267         1.654579        -0.072446
 H         2.785897         1.511808         2.269823
 H         5.386393        -0.348504         1.087869
 H         3.056040        -1.632310        -0.674752
 H         1.957030        -1.939729         0.953436
