19
Iteration:  3799charge 0 multiplicity 1
 C         0.263679        -0.368283        -0.960662
 C         1.504946        -0.096826        -0.180394
 C         2.459053         0.865790        -0.961811
 C         3.479674         1.077541         0.201620
 C         2.713069         0.789657         1.420076
 O         1.305045         0.623285         1.038430
 C         3.531758        -0.302084         0.882071
 O         4.753201        -0.761464         1.411842
 C         2.588848        -1.273151         0.226667
 H        -0.340478         0.531369        -1.131459
 H         0.570359        -0.394906        -2.018471
 H        -0.251870        -1.251968        -0.550017
 H         2.906508         0.327292        -1.868746
 H         1.893126         1.630510        -1.331864
 H         4.371625         1.777530         0.012071
 H         2.824531         1.257447         2.350021
 H         4.730851        -1.110363         2.326714
 H         3.098432        -1.716948        -0.623853
 H         2.307007        -1.910146         1.030667
