19
Iteration:  1287
 C         0.180035        -0.571604        -0.680587
 C         1.501555        -0.052151        -0.168449
 C         2.504983         0.819526        -1.123562
 C         3.542632         1.039038         0.024882
 C         2.822622         0.960779         1.238156
 O         1.434579         0.809768         0.951206
 C         3.595101        -0.335744         0.837848
 O         4.634320        -0.890238         1.556498
 C         2.387814        -1.214223         0.391904
 H        -0.156514        -1.458102        -0.125795
 H        -0.553941         0.161700        -0.629275
 H         0.248904        -0.943078        -1.762281
 H         2.941756         0.278096        -2.032169
 H         1.882104         1.657814        -1.378728
 H         4.571091         1.520590         0.022245
 H         3.005643         1.623672         2.045595
 H         5.428375        -0.355998         1.430481
 H         2.725262        -2.029170        -0.275711
 H         1.923211        -1.671402         1.268581
