19
Iteration:   145
 C         0.194009        -0.503534        -0.698000
 C         1.603090        -0.217100        -0.212181
 C         2.479310         0.682321        -1.107136
 C         3.537989         0.982867        -0.021614
 C         2.802984         1.031496         1.337341
 O         1.427539         0.843934         0.977831
 C         3.531452        -0.268519         0.798393
 O         4.634927        -0.776515         1.495305
 C         2.492957        -1.219290         0.408587
 H        -0.485407        -0.320511         0.099312
 H        -0.021807         0.243581        -1.484174
 H         0.001263        -1.493198        -0.997527
 H         2.906165         0.309105        -1.956371
 H         1.778511         1.583194        -1.279296
 H         4.619547         1.441375        -0.226128
 H         3.082787         1.582348         2.198781
 H         4.236102        -1.296477         2.250237
 H         2.692854        -1.874139        -0.437346
 H         2.032382        -1.863303         1.120544
