19
Iteration:   773
 C         0.201532        -0.421051        -0.661301
 C         1.524471        -0.003826        -0.167379
 C         2.526932         0.735622        -1.065882
 C         3.619365         0.890211        -0.077710
 C         2.811001         0.936382         1.264427
 O         1.362397         0.771792         1.016734
 C         3.506724        -0.338970         0.833775
 O         4.697091        -0.676619         1.511141
 C         2.427279        -1.313666         0.298455
 H        -0.524233        -0.671829         0.138562
 H        -0.357144         0.317490        -1.381784
 H         0.269035        -1.295445        -1.243638
 H         2.819023        -0.040472        -1.887570
 H         2.139059         1.572195        -1.537028
 H         4.464095         1.609343        -0.086535
 H         2.994790         1.425614         2.213880
 H         4.465837        -1.080030         2.336040
 H         2.839087        -2.035993        -0.369730
 H         2.071884        -1.887293         1.202207
