19
Iteration:  4801charge 0 multiplicity 1
 C         0.219262        -0.454796        -0.855665
 C         1.582399        -0.078204        -0.258645
 C         2.623734         0.852340        -0.977124
 C         3.488748         1.046685         0.221603
 C         2.618305         0.878354         1.517169
 O         1.254072         0.720039         1.038135
 C         3.552439        -0.297595         0.850872
 O         4.761410        -0.805144         1.280608
 C         2.531205        -1.226893         0.286492
 H        -0.701256        -0.439677        -0.275117
 H        -0.043148         0.159500        -1.734088
 H         0.327342        -1.513014        -1.254787
 H         3.183938         0.266143        -1.721331
 H         2.371391         1.694610        -1.648401
 H         4.450961         1.637264         0.039502
 H         2.841361         1.471287         2.434696
 H         4.444430        -1.524303         1.832344
 H         2.895150        -2.004017        -0.401630
 H         2.124232        -1.775133         1.139279
