19
Iteration:  4135charge 0 multiplicity 1
 C         0.235465        -0.486409        -0.859225
 C         1.567200        -0.111362        -0.261522
 C         2.565838         1.042018        -0.959090
 C         3.502976         1.109169         0.203098
 C         2.627692         0.754152         1.508576
 O         1.279780         0.561588         1.023470
 C         3.524967        -0.297817         0.902966
 O         4.756545        -0.768228         1.356160
 C         2.598581        -1.184247         0.133881
 H        -0.252833         0.280567        -1.547681
 H         0.438427        -1.450715        -1.426612
 H        -0.648596        -0.704142        -0.162198
 H         2.863167         0.815924        -1.935074
 H         1.991773         2.044891        -0.894809
 H         4.451847         1.783606         0.370190
 H         2.824514         1.199611         2.460437
 H         4.602084        -1.676778         1.771444
 H         3.122800        -1.761019        -0.689968
 H         2.091410        -1.888616         0.880732
