19
Iteration:  3753
 C         0.107439        -0.422345        -0.784407
 C         1.573988        -0.076223        -0.324489
 C         2.527467         0.990872        -0.994762
 C         3.511783         1.010948         0.075715
 C         2.669891         0.794863         1.338022
 O         1.374216         0.588524         0.977659
 C         3.563915        -0.321133         0.891496
 O         4.697162        -0.712306         1.624557
 C         2.641107        -1.272290         0.133370
 H        -0.487485         0.336345        -0.356594
 H         0.023793        -0.282733        -1.837064
 H         0.034137        -1.401914        -0.217494
 H         2.890901         0.531491        -1.945755
 H         2.003305         1.897334        -1.185679
 H         4.448685         1.555424         0.193497
 H         2.786660         1.077524         2.390503
 H         4.559317        -1.384288         2.378955
 H         3.102623        -1.661168        -0.758710
 H         1.889532        -1.900278         0.608477
