19
Iteration:   968charge 0 multiplicity 1
 C         0.172530        -0.411872        -0.790481
 C         1.524481        -0.153306        -0.231947
 C         2.458177         0.689480        -1.036167
 C         3.536486         0.937738        -0.002693
 C         2.801650         0.957019         1.348918
 O         1.431540         0.768584         0.981901
 C         3.552458        -0.331643         0.883191
 O         4.760421        -0.725715         1.433140
 C         2.413061        -1.244266         0.396967
 H        -0.472393        -0.636306         0.083413
 H        -0.327843         0.503423        -1.271905
 H         0.139736        -1.179615        -1.484925
 H         2.955518         0.190684        -1.905236
 H         1.948043         1.596407        -1.436253
 H         4.518834         1.443414        -0.090601
 H         2.829984         1.607158         2.264822
 H         4.674867        -0.567761         2.355642
 H         2.830818        -1.937108        -0.300647
 H         1.869324        -1.781325         1.252355
