19
Iteration:  1850charge 0 multiplicity 1
 C         0.254547        -0.472852        -0.755551
 C         1.540490        -0.120208        -0.204859
 C         2.451627         0.873221        -0.958956
 C         3.541283         0.957629         0.113331
 C         2.706365         0.919549         1.350514
 O         1.329020         0.747048         0.953070
 C         3.542436        -0.350775         0.863476
 O         4.806462        -0.760716         1.387856
 C         2.494294        -1.231326         0.316580
 H        -0.371720        -0.924391         0.044148
 H        -0.206959         0.387440        -1.197347
 H         0.353741        -1.270440        -1.563109
 H         2.802495         0.387510        -1.929549
 H         1.997684         1.824357        -1.186697
 H         4.417396         1.698281        -0.089503
 H         2.806548         1.687424         2.106220
 H         4.535953        -1.514866         1.984457
 H         2.726444        -1.921721        -0.486335
 H         1.941487        -1.791184         1.093010
