19
Iteration:  3922charge 0 multiplicity 1
 C         0.203045        -0.369673        -0.861366
 C         1.540616        -0.110741        -0.212151
 C         2.487058         0.932796        -0.968155
 C         3.470525         1.068511         0.162701
 C         2.664689         0.748111         1.400803
 O         1.349015         0.575358         1.030194
 C         3.542683        -0.295560         0.817830
 O         4.760559        -0.676601         1.494394
 C         2.610081        -1.315694         0.140861
 H        -0.281110         0.650192        -0.875564
 H         0.349283        -0.837358        -1.895661
 H        -0.433032        -0.954203        -0.237423
 H         3.121098         0.550663        -1.794672
 H         2.069652         1.857831        -1.149382
 H         4.404781         1.689462         0.173059
 H         2.721686         1.209330         2.377640
 H         4.492153        -1.472881         2.038577
 H         2.942281        -1.805404        -0.762377
 H         2.174632        -1.918329         0.893410
