19
Iteration:  3898
 C         0.172803        -0.355212        -0.833454
 C         1.579565        -0.143379        -0.264477
 C         2.438772         0.961879        -1.000542
 C         3.522667         1.044877         0.086719
 C         2.724051         0.791655         1.357003
 O         1.381682         0.425444         1.073075
 C         3.548440        -0.259416         0.867808
 O         4.689195        -0.733380         1.608011
 C         2.621452        -1.157553         0.052435
 H        -0.273437         0.608621        -1.232450
 H         0.223030        -1.276493        -1.495205
 H        -0.396660        -0.580348         0.048021
 H         2.871826         0.691126        -2.072270
 H         1.936717         1.906000        -0.924065
 H         4.348816         1.634353         0.160450
 H         2.916743         1.362348         2.335902
 H         4.339737        -1.393815         2.165140
 H         3.046757        -1.590704        -0.857176
 H         2.100997        -1.793193         0.717454
