19
Iteration:  4530
 C         0.343297        -0.534900        -1.022619
 C         1.510329        -0.103537        -0.180676
 C         2.498501         0.893840        -1.002122
 C         3.596879         0.939699        -0.008186
 C         2.714028         0.934656         1.366142
 O         1.412007         0.724625         1.125004
 C         3.547212        -0.272911         0.925849
 O         4.690502        -0.851955         1.463906
 C         2.390112        -1.220303         0.338258
 H         0.434325        -0.103285        -2.024637
 H         0.059631        -1.612776        -1.136663
 H        -0.699230        -0.174533        -0.726536
 H         2.479816         0.484819        -2.030496
 H         1.795867         1.863739        -0.919273
 H         4.360680         1.710946         0.059125
 H         2.818539         1.716401         2.063893
 H         4.851228        -0.728659         2.404207
 H         2.855620        -1.932553        -0.377541
 H         1.744006        -1.588000         1.195693
