19
Iteration:  2690charge 0 multiplicity 1
 C         0.241225        -0.280416        -0.854018
 C         1.551987        -0.134994        -0.334341
 C         2.534982         0.784235        -1.066491
 C         3.513959         1.013273         0.070256
 C         2.708333         0.776318         1.403344
 O         1.376452         0.537307         1.074465
 C         3.517001        -0.295871         0.845328
 O         4.730870        -0.599232         1.579105
 C         2.516732        -1.261477         0.243328
 H        -0.206601         0.602286        -1.257236
 H         0.245007        -1.003656        -1.811244
 H        -0.540358        -0.711619        -0.092572
 H         2.933020         0.202352        -1.867249
 H         2.066887         1.713885        -1.495806
 H         4.308018         1.625695         0.124166
 H         2.762169         1.378183         2.317722
 H         4.433649        -0.980348         2.406813
 H         2.854034        -1.956703        -0.486668
 H         1.960571        -1.849440         0.945189
