19
Iteration:  3846
 C         0.281982        -0.562306        -0.878451
 C         1.586098        -0.042379        -0.217996
 C         2.515523         1.040307        -0.971403
 C         3.508740         1.072525         0.213333
 C         2.700363         0.819830         1.500789
 O         1.320966         0.607865         1.011001
 C         3.491495        -0.291849         0.865564
 O         4.706278        -0.872197         1.341409
 C         2.534453        -1.198897         0.204504
 H        -0.182468         0.005023        -1.734271
 H         0.518065        -1.462970        -1.483486
 H        -0.378897        -0.804216        -0.108415
 H         2.904768         0.587883        -1.831117
 H         2.109610         2.012421        -1.193423
 H         4.316922         1.732008         0.193533
 H         2.775256         1.411826         2.479293
 H         4.734554        -0.636022         2.243983
 H         2.974030        -1.619119        -0.701809
 H         1.905335        -1.807455         0.826375
