19
Iteration:  2217charge 0 multiplicity 1
 C         0.300003        -0.563111        -0.838056
 C         1.558668        -0.089668        -0.184135
 C         2.434795         0.868555        -0.964945
 C         3.524673         0.988209         0.057278
 C         2.712194         0.896522         1.330275
 O         1.321491         0.810978         1.000727
 C         3.546042        -0.279408         0.923209
 O         4.643178        -0.903119         1.552644
 C         2.571270        -1.196176         0.210876
 H         0.360734        -0.455143        -1.988133
 H         0.166514        -1.599630        -0.616992
 H        -0.628990        -0.120767        -0.518416
 H         2.766727         0.494838        -1.923777
 H         1.793808         1.936371        -1.080281
 H         4.326130         1.742236         0.035622
 H         3.019232         1.356677         2.250410
 H         5.433102        -0.386438         1.179995
 H         2.895429        -1.812098        -0.690845
 H         2.192299        -1.940024         1.019934
