19
Iteration:  1383
 C         0.141942        -0.385422        -0.702670
 C         1.573155        -0.191150        -0.261040
 C         2.470285         0.752135        -1.072077
 C         3.638278         0.886922        -0.004436
 C         2.790245         0.979523         1.224257
 O         1.358241         0.757569         0.990694
 C         3.478680        -0.301728         0.986464
 O         4.763698        -0.659639         1.452348
 C         2.437819        -1.316981         0.390011
 H        -0.589349        -0.761863         0.071347
 H        -0.086220         0.601208        -1.045531
 H         0.052656        -1.158866        -1.530413
 H         2.657626         0.535056        -2.079773
 H         1.848048         1.750209        -0.997666
 H         4.716521         1.328857        -0.078639
 H         3.021227         1.727958         1.957293
 H         4.804068        -1.431504         1.968159
 H         2.831748        -2.050189        -0.351804
 H         1.969320        -1.939351         1.195951
