19
Iteration:    46charge 0 multiplicity 1
 C         0.024836        -0.699622        -0.774138
 C         1.482837        -0.068286        -0.218229
 C         2.539176         0.750785        -1.113765
 C         3.633401         0.948702        -0.007595
 C         2.872873         1.088721         1.220520
 O         1.470950         0.824179         1.000073
 C         3.551019        -0.213501         0.966308
 O         4.700288        -0.884315         1.492012
 C         2.412071        -1.084622         0.416869
 H        -0.114265        -1.568286        -0.186405
 H        -0.894080        -0.000158        -0.585107
 H         0.097676        -1.041100        -1.765128
 H         2.865753         0.162583        -1.880881
 H         2.070139         1.737977        -1.513361
 H         4.421556         1.598593        -0.097949
 H         3.110618         1.728442         2.150174
 H         4.375288        -1.643343         2.010146
 H         2.826660        -1.889381        -0.200223
 H         1.852851        -1.536239         1.239708
