19
Iteration:  4400
 C         0.296426        -0.505133        -0.896144
 C         1.536852        -0.059952        -0.203455
 C         2.559306         0.806168        -1.010236
 C         3.560277         1.012703         0.086699
 C         2.664329         0.914447         1.355223
 O         1.306986         0.666172         1.072080
 C         3.525102        -0.269966         0.944548
 O         4.654226        -0.884486         1.395805
 C         2.523065        -1.117155         0.331378
 H         0.628580        -0.749113        -1.937363
 H        -0.147582        -1.470565        -0.462423
 H        -0.426564         0.368179        -0.919374
 H         2.878046         0.395164        -2.023703
 H         2.002811         1.757038        -1.372805
 H         4.521501         1.600012         0.061193
 H         2.963855         1.610403         2.164566
 H         5.026190        -0.486217         2.244270
 H         2.786863        -1.797349        -0.507685
 H         1.935120        -1.869897         0.901817
