19
Iteration:  1526charge 0 multiplicity 1
 C         0.191896        -0.397287        -0.745612
 C         1.516669        -0.111685        -0.138481
 C         2.514732         0.674561        -1.070910
 C         3.594234         0.976681         0.009268
 C         2.744236         0.970458         1.232394
 O         1.358365         0.782928         1.018593
 C         3.507554        -0.273360         0.855661
 O         4.729672        -0.763712         1.437321
 C         2.508947        -1.275949         0.418921
 H        -0.212845        -1.310703        -0.311764
 H        -0.403937         0.427593        -0.422769
 H         0.226319        -0.460026        -1.930058
 H         2.774824         0.060019        -1.865850
 H         1.950903         1.547169        -1.510615
 H         4.416056         1.582297        -0.050877
 H         2.876796         1.724637         2.015543
 H         4.447144        -1.480042         2.013695
 H         2.866201        -2.017805        -0.342255
 H         2.251977        -1.891846         1.300809
