19
Iteration:  4830charge 0 multiplicity 1
 C         0.268907        -0.351275        -0.950418
 C         1.562297        -0.106264        -0.228813
 C         2.428039         0.877559        -0.949382
 C         3.590168         0.922128         0.066010
 C         2.702580         0.832714         1.462325
 O         1.338860         0.601156         1.045436
 C         3.551148        -0.308820         0.910487
 O         4.802990        -0.699259         1.428750
 C         2.395940        -1.240341         0.262290
 H        -0.580392        -0.521218        -0.302386
 H         0.009136         0.522763        -1.586073
 H         0.346309        -1.263817        -1.471493
 H         2.705640         0.447931        -2.003799
 H         1.923324         1.842908        -1.048325
 H         4.484412         1.456916        -0.196401
 H         2.885195         1.511085         2.367650
 H         4.656267        -0.974283         2.319876
 H         2.848314        -1.769631        -0.589030
 H         2.004673        -1.951295         0.981649
