19
Iteration:  1899charge 0 multiplicity 1
 C         0.252816        -0.338584        -0.699597
 C         1.541382        -0.121094        -0.154420
 C         2.436663         0.725202        -1.024657
 C         3.517732         1.026928         0.052217
 C         2.737249         0.848502         1.318749
 O         1.353058         0.619956         1.062294
 C         3.551007        -0.267443         0.768514
 O         4.658910        -0.794737         1.620364
 C         2.594753        -1.218302         0.103136
 H        -0.532358        -0.036986         0.066709
 H         0.069421         0.393191        -1.589353
 H         0.178302        -1.372282        -1.138221
 H         2.753605         0.270763        -1.957059
 H         1.795369         1.709330        -1.161616
 H         4.309836         1.719886        -0.169658
 H         2.930337         1.324964         2.296352
 H         5.299120        -0.074316         1.653940
 H         2.820526        -1.632163        -0.921100
 H         2.141224        -2.135501         0.567707
