19
Iteration:  4950charge 0 multiplicity 1
 C         0.259217        -0.413783        -0.938179
 C         1.490634        -0.113866        -0.141581
 C         2.515836         0.744037        -1.036497
 C         3.548885         0.967604         0.030333
 C         2.728264         0.855407         1.348986
 O         1.385591         0.695227         1.088283
 C         3.526388        -0.338376         0.889540
 O         4.747970        -0.697915         1.427133
 C         2.428527        -1.182604         0.388001
 H        -0.053592        -1.381025        -1.223949
 H        -0.593585         0.232880        -0.687950
 H         0.603319        -0.017693        -1.904322
 H         2.846522         0.197177        -1.951342
 H         1.950417         1.653319        -1.188932
 H         4.557920         1.572290        -0.104947
 H         2.940836         1.541064         2.121628
 H         4.581832        -1.214531         2.291518
 H         2.515655        -1.885044        -0.481401
 H         2.080959        -1.633262         1.326991
