19
Iteration:  2095
 C         0.286275        -0.569363        -0.849703
 C         1.557412        -0.119081        -0.202050
 C         2.471522         0.870041        -0.995799
 C         3.500540         1.165875         0.140351
 C         2.742597         0.880197         1.379034
 O         1.391865         0.740272         1.018823
 C         3.519383        -0.285279         0.819036
 O         4.708361        -0.868934         1.366889
 C         2.440026        -1.242021         0.304883
 H         0.198445        -1.678724        -0.958126
 H        -0.572118        -0.276610        -0.172515
 H         0.077388        -0.213838        -1.825674
 H         3.138355         0.433960        -1.621738
 H         1.921450         1.827696        -1.361379
 H         4.302632         1.912564         0.186930
 H         2.980061         1.451507         2.272181
 H         4.601245        -1.038209         2.293046
 H         2.913013        -1.866280        -0.506383
 H         2.160563        -1.655367         1.292632
