19
Iteration:  1731
 C         0.214116        -0.423784        -0.719057
 C         1.516055        -0.027334        -0.227511
 C         2.467368         0.728673        -1.128671
 C         3.558990         0.981933         0.028202
 C         2.760258         0.839207         1.327453
 O         1.396118         0.698128         1.080531
 C         3.598870        -0.272560         0.804247
 O         4.712401        -0.751636         1.522211
 C         2.454429        -1.197808         0.264075
 H        -0.312052        -1.026747         0.009704
 H        -0.386274         0.346844        -1.120546
 H         0.297169        -1.161321        -1.582228
 H         2.874861         0.175588        -1.929559
 H         2.071846         1.703613        -1.498279
 H         4.363341         1.768749        -0.062653
 H         2.950130         1.428762         2.224515
 H         4.425560        -1.026578         2.432263
 H         2.614274        -1.923725        -0.541056
 H         2.066964        -1.722985         1.165251
