19
Iteration:  4217charge 0 multiplicity 1
 C         0.281549        -0.492558        -0.980361
 C         1.543680        -0.098144        -0.299859
 C         2.402367         1.071410        -0.972458
 C         3.535015         1.057327         0.131897
 C         2.734580         0.817455         1.449760
 O         1.351402         0.521025         1.109247
 C         3.533053        -0.300549         0.936497
 O         4.747847        -0.823621         1.416684
 C         2.528342        -1.169851         0.232692
 H        -0.540638        -0.090055        -0.420721
 H         0.223534        -0.050500        -1.973479
 H         0.255938        -1.581466        -1.030449
 H         2.691731         0.724568        -2.063835
 H         1.870298         1.955862        -1.089105
 H         4.325044         1.742871         0.157571
 H         2.714317         1.116638         2.483831
 H         4.856087        -0.805590         2.355380
 H         2.980830        -1.672606        -0.629943
 H         1.872831        -1.883255         0.746802
