19
Iteration:  4340
 C         0.204287        -0.451907        -0.847651
 C         1.571630        -0.017095        -0.237496
 C         2.496464         0.886634        -1.040693
 C         3.527129         1.075830         0.108306
 C         2.756660         0.866937         1.393870
 O         1.332635         0.553898         1.047748
 C         3.559055        -0.334271         0.924997
 O         4.613679        -0.781825         1.634736
 C         2.559465        -1.237170         0.151343
 H         0.159260        -1.507530        -1.063234
 H        -0.595371        -0.165056        -0.248453
 H         0.127778        -0.006770        -1.838189
 H         2.854656         0.321395        -1.887784
 H         2.019322         1.848050        -1.342818
 H         4.424865         1.702814        -0.208192
 H         2.987966         1.461516         2.259650
 H         5.423346        -0.795285         1.058365
 H         2.981571        -1.525225        -0.788350
 H         1.910682        -1.917177         0.652104
