19
Iteration:  3956
 C         0.291340        -0.458527        -1.009642
 C         1.522295        -0.053067        -0.234025
 C         2.546680         0.929006        -0.882708
 C         3.465036         1.025068         0.173942
 C         2.601948         0.882863         1.461971
 O         1.298180         0.622767         1.120198
 C         3.506857        -0.319491         0.964148
 O         4.811113        -0.785421         1.269060
 C         2.528272        -1.204183         0.210007
 H        -0.584424         0.140202        -0.623961
 H         0.386371        -0.555039        -2.121982
 H         0.339420        -1.499569        -0.621174
 H         2.976594         0.366063        -1.761533
 H         2.246394         1.815658        -1.370980
 H         4.561728         1.538644         0.027822
 H         2.739936         1.375621         2.355207
 H         4.754246        -1.122640         2.249315
 H         2.897972        -1.965300        -0.458778
 H         1.918164        -1.864471         0.820845
