19
Iteration:  2827charge 0 multiplicity 1
 C         0.187822        -0.304323        -0.859495
 C         1.597919        -0.155544        -0.257770
 C         2.571246         0.702390        -1.035284
 C         3.582334         1.032356         0.066291
 C         2.689666         0.795016         1.393218
 O         1.409171         0.595789         1.016440
 C         3.470187        -0.313186         0.866021
 O         4.645071        -0.551412         1.576083
 C         2.514131        -1.264047         0.208280
 H        -0.259963         0.582531        -0.336883
 H         0.249338        -0.116912        -1.850553
 H        -0.303349        -1.268085        -0.644022
 H         2.991162         0.178702        -1.872830
 H         2.036728         1.516093        -1.434314
 H         4.403781         1.598401        -0.003812
 H         2.865420         1.251841         2.399917
 H         4.410693        -1.085812         2.385534
 H         2.821463        -1.943452        -0.684698
 H         2.097117        -2.088279         0.913734
