19
Iteration:   576charge 0 multiplicity 1
 C         0.169059        -0.648986        -0.653367
 C         1.517541        -0.107437        -0.252553
 C         2.542825         0.783807        -1.057876
 C         3.643159         0.860426        -0.004377
 C         2.832809         1.028655         1.264996
 O         1.416257         0.894172         0.941503
 C         3.450702        -0.322894         0.917675
 O         4.689397        -0.785629         1.480467
 C         2.413195        -1.146444         0.360086
 H        -0.450121        -0.757182         0.214523
 H        -0.379992        -0.036574        -1.452313
 H         0.241894        -1.623208        -1.157390
 H         2.779635         0.439276        -2.162830
 H         2.121310         1.746969        -1.061436
 H         4.533688         1.343520        -0.107105
 H         3.154271         1.748462         2.007523
 H         4.426853        -1.143641         2.337856
 H         2.735067        -1.781603        -0.439542
 H         1.858179        -1.786900         1.096411
