19
Iteration:  2991charge 0 multiplicity 1
 C         0.208307        -0.411105        -0.954678
 C         1.560493        -0.095798        -0.266055
 C         2.550226         0.847649        -1.022091
 C         3.493915         1.045523         0.103663
 C         2.712007         0.828031         1.400820
 O         1.374317         0.560319         1.041360
 C         3.532378        -0.279079         0.860176
 O         4.781245        -0.741306         1.522550
 C         2.447797        -1.205603         0.282998
 H        -0.092580         0.315930        -1.721603
 H         0.175830        -1.451452        -1.195734
 H        -0.605220        -0.356100        -0.088873
 H         3.085250         0.540617        -1.995041
 H         2.086072         1.809867        -1.308215
 H         4.406762         1.799080         0.274661
 H         2.815559         1.458828         2.245282
 H         4.480691        -1.088910         2.399665
 H         2.712872        -1.826176        -0.577952
 H         1.927935        -1.822967         1.013193
