19
Iteration:  3224charge 0 multiplicity 1
 C         0.230802        -0.302075        -0.859190
 C         1.598964        -0.187124        -0.201562
 C         2.472602         0.885036        -0.982820
 C         3.529249         1.053495         0.144817
 C         2.642732         0.841159         1.359450
 O         1.331905         0.622258         0.966166
 C         3.567393        -0.406561         0.881265
 O         4.713850        -0.683913         1.522066
 C         2.589037        -1.318078         0.176886
 H        -0.024447         0.562287        -1.445504
 H         0.298999        -1.254294        -1.495374
 H        -0.559646        -0.519121        -0.196083
 H         2.747325         0.536736        -1.949258
 H         1.901407         1.939308        -1.152030
 H         4.510856         1.752238         0.277490
 H         2.737687         1.356164         2.309428
 H         4.368038        -0.995368         2.340107
 H         3.033236        -1.897507        -0.649907
 H         2.225399        -2.044469         0.849183
