19
Iteration:  4462
 C         0.099034        -0.405333        -0.711425
 C         1.617197        -0.030130        -0.339685
 C         2.565292         0.814769        -1.038498
 C         3.623408         0.908703         0.082205
 C         2.610469         0.885122         1.352831
 O         1.346311         0.663075         0.995014
 C         3.505009        -0.368698         0.863097
 O         4.708534        -0.625943         1.632623
 C         2.624767        -1.285926         0.131438
 H        -0.107733        -0.083669        -1.746554
 H        -0.132895        -1.495229        -0.639629
 H        -0.553935         0.027581        -0.006830
 H         2.933135         0.379293        -1.894718
 H         2.240521         1.884000        -1.386354
 H         4.690247         1.258911         0.007900
 H         2.635329         1.528671         2.291979
 H         4.404619        -1.479253         2.113745
 H         2.891907        -1.869113        -0.795866
 H         1.921825        -1.719136         0.863162
