19
Iteration:  2590charge 0 multiplicity 1
 C         0.282600        -0.483707        -0.777463
 C         1.540708        -0.107757        -0.205817
 C         2.518751         0.874048        -1.028254
 C         3.567528         1.032128         0.089680
 C         2.667807         0.870998         1.376187
 O         1.349150         0.685645         0.967537
 C         3.500226        -0.280768         0.896078
 O         4.609369        -0.836826         1.556897
 C         2.603901        -1.225342         0.191932
 H        -0.536047         0.203506        -0.501055
 H         0.331693        -0.523920        -1.912543
 H        -0.002681        -1.601581        -0.687203
 H         2.922202         0.373933        -1.836832
 H         1.874920         1.754849        -1.369818
 H         4.449442         1.727158        -0.217572
 H         2.849095         1.449917         2.277488
 H         4.957063        -0.243149         2.306718
 H         2.978423        -1.604401        -0.764136
 H         2.194839        -2.034677         0.738364
