19
Iteration:   295charge 0 multiplicity 1
 C         0.190365        -0.566524        -0.641832
 C         1.557534        -0.016117        -0.189778
 C         2.465064         0.764795        -1.172618
 C         3.568162         0.787426        -0.032289
 C         2.767689         0.965147         1.290212
 O         1.465968         0.886675         0.867152
 C         3.548428        -0.345635         0.952465
 O         4.701084        -0.767779         1.529196
 C         2.399196        -1.172956         0.400948
 H         0.054930        -1.452939        -0.083030
 H        -0.776339         0.142630        -0.590360
 H         0.274663        -0.710451        -1.694317
 H         2.686945         0.364443        -2.177700
 H         2.035755         1.742594        -1.397426
 H         4.580023         1.414938        -0.087900
 H         3.012123         1.638124         2.082621
 H         4.509923        -1.240022         2.363604
 H         2.723747        -1.865590        -0.351007
 H         1.812526        -1.679652         1.230328
