19
Iteration:  1319charge 0 multiplicity 1
 C         0.168325        -0.488909        -0.664212
 C         1.533889        -0.058661        -0.206433
 C         2.410535         0.762519        -1.078335
 C         3.603359         0.887051        -0.058799
 C         2.813846         0.993402         1.260300
 O         1.406040         0.763030         0.970130
 C         3.567905        -0.284712         0.884079
 O         4.596945        -0.872163         1.547110
 C         2.546887        -1.159845         0.324297
 H        -0.138804        -1.462521        -0.264740
 H        -0.549547         0.170110        -0.333293
 H         0.085769        -0.538284        -1.802354
 H         2.570806         0.274462        -2.087776
 H         1.852582         1.740775        -1.279171
 H         4.656808         1.305743        -0.154417
 H         2.945560         1.754097         1.991153
 H         5.071303        -0.398213         2.239560
 H         3.062803        -1.891613        -0.328090
 H         2.194067        -1.777719         1.137238
