19
Iteration:  2943
 C         0.088210        -0.377839        -0.883321
 C         1.570946        -0.106941        -0.286098
 C         2.531333         0.844421        -1.059994
 C         3.566578         0.948345         0.111203
 C         2.682442         0.871142         1.396811
 O         1.343598         0.591878         1.025283
 C         3.518968        -0.310975         0.982137
 O         4.805016        -0.680137         1.594669
 C         2.536254        -1.253345         0.150305
 H         0.006020         0.551970        -1.597823
 H         0.092521        -1.460679        -1.279269
 H        -0.670287        -0.352310        -0.141601
 H         2.781006         0.412266        -2.179591
 H         1.997779         1.775212        -1.317209
 H         4.255377         1.664760         0.040193
 H         2.968875         1.645652         2.160368
 H         4.628991        -1.292030         2.380295
 H         3.168200        -1.604869        -0.609185
 H         1.998835        -2.065053         0.625641
