19
Iteration:  2751charge 0 multiplicity 1
 C         0.303369        -0.637225        -0.855408
 C         1.530335        -0.031653        -0.227673
 C         2.572042         0.896395        -1.036877
 C         3.574724         1.081741         0.123597
 C         2.696486         0.906018         1.374165
 O         1.317427         0.678629         1.046098
 C         3.540459        -0.290785         0.874331
 O         4.658614        -0.845743         1.463845
 C         2.451714        -1.106251         0.223009
 H        -0.093685        -0.004379        -1.616512
 H         0.598520        -1.569770        -1.119469
 H        -0.318646        -0.878771         0.005462
 H         2.977327         0.308138        -1.856389
 H         2.206650         1.858233        -1.461789
 H         4.457815         1.679820         0.145397
 H         2.902519         1.368431         2.322218
 H         4.347756        -1.239218         2.323301
 H         2.930379        -1.667084        -0.648770
 H         1.879836        -1.752892         0.970747
