19
Iteration:  2025
 C         0.159708        -0.412959        -0.781797
 C         1.527553        -0.152442        -0.245436
 C         2.486409         0.888291        -0.983470
 C         3.589350         1.092369         0.047901
 C         2.788101         0.744618         1.321252
 O         1.421046         0.620990         1.057245
 C         3.612721        -0.302940         0.737686
 O         4.552388        -0.685887         1.613619
 C         2.525381        -1.302314         0.228075
 H        -0.237039        -1.350828        -0.749328
 H        -0.428267         0.194190        -0.198567
 H         0.030136        -0.078895        -1.819266
 H         2.720678         0.261150        -1.908361
 H         1.817258         1.684288        -1.210805
 H         4.504046         1.616096        -0.085908
 H         3.020532         1.087092         2.362430
 H         5.374759        -0.110589         1.528548
 H         2.841333        -1.851572        -0.620134
 H         2.047006        -1.829679         1.009758
