19
Iteration:  2291
 C         0.123135        -0.384656        -0.791138
 C         1.532123        -0.115906        -0.224523
 C         2.490348         0.771736        -0.972886
 C         3.541950         1.000914         0.126571
 C         2.667213         0.865888         1.352804
 O         1.351403         0.680762         0.962709
 C         3.595503        -0.332297         0.870127
 O         4.747625        -0.744824         1.576048
 C         2.580783        -1.276280         0.156076
 H         0.002264         0.374183        -1.596927
 H         0.129910        -1.330976        -1.368117
 H        -0.718251        -0.381450        -0.174219
 H         2.831781         0.450397        -1.935741
 H         1.973519         1.678000        -1.307164
 H         4.373542         1.730347        -0.019608
 H         2.756011         1.410429         2.272571
 H         5.012929        -0.067991         2.179464
 H         3.109446        -1.840993        -0.632216
 H         2.110387        -2.113396         0.689630
