19
Iteration:  2266charge 0 multiplicity 1
 C         0.241007        -0.407072        -0.874618
 C         1.577072        -0.110095        -0.240285
 C         2.545603         0.774986        -1.047752
 C         3.524197         1.010086         0.106654
 C         2.647368         0.881079         1.431808
 O         1.306931         0.645478         1.057666
 C         3.536216        -0.262601         0.924826
 O         4.749339        -0.704662         1.417049
 C         2.530946        -1.253452         0.265781
 H         0.120199         0.193831        -1.765493
 H        -0.042966        -1.503121        -1.152424
 H        -0.605212        -0.051378        -0.148926
 H         2.930565         0.273906        -2.008339
 H         2.078581         1.625920        -1.390020
 H         4.399415         1.572635         0.030228
 H         2.751618         1.539906         2.324638
 H         4.658023        -1.212992         2.223485
 H         3.025735        -1.851742        -0.491233
 H         2.094051        -1.989525         0.913873
