19
Iteration:  3061charge 0 multiplicity 1
 C         0.230660        -0.463470        -0.814022
 C         1.568495         0.005468        -0.298700
 C         2.595908         0.912920        -1.098467
 C         3.522860         1.005308         0.075963
 C         2.681112         0.831207         1.358905
 O         1.316798         0.586724         1.021967
 C         3.561959        -0.283685         0.879717
 O         4.727584        -0.783248         1.600853
 C         2.494868        -1.150541         0.242694
 H        -0.594486         0.182472        -0.516390
 H         0.241080        -0.800172        -1.915136
 H        -0.056196        -1.398526        -0.442449
 H         2.872288         0.376948        -1.912054
 H         2.078034         1.807743        -1.511682
 H         4.293766         1.646039         0.075695
 H         2.805963         1.440013         2.282458
 H         4.416062        -1.451562         2.312393
 H         2.923362        -1.855186        -0.589999
 H         1.981903        -1.842768         1.027430
