19
Iteration:   446charge 0 multiplicity 1
 C         0.180639        -0.601097        -0.659241
 C         1.546932        -0.091710        -0.279327
 C         2.488798         0.711781        -1.175978
 C         3.587119         0.880969        -0.079939
 C         2.785725         1.135352         1.283112
 O         1.430401         0.865603         1.024015
 C         3.553916        -0.222740         1.007980
 O         4.623352        -0.969306         1.480185
 C         2.517802        -1.115734         0.376035
 H        -0.261188        -1.280768         0.046338
 H        -0.626486         0.249775        -0.845471
 H         0.352651        -1.192533        -1.561591
 H         2.800987         0.147803        -2.168054
 H         2.055398         1.655402        -1.363766
 H         4.424112         1.514574        -0.206842
 H         3.012493         2.064233         1.891283
 H         4.195590        -1.175391         2.332211
 H         2.903805        -1.934727        -0.221119
 H         1.895280        -1.505579         1.282176
