19
Iteration:  2197
 C         0.183497        -0.533357        -0.762073
 C         1.594051        -0.110394        -0.234791
 C         2.480143         0.887840        -1.057807
 C         3.539359         1.006554         0.061138
 C         2.743940         0.928317         1.417334
 O         1.394712         0.654453         1.032015
 C         3.511103        -0.278563         0.911246
 O         4.651375        -0.856301         1.520110
 C         2.549802        -1.156506         0.160603
 H         0.284633        -0.797549        -1.901495
 H        -0.180201        -1.470096        -0.326752
 H        -0.692995         0.202171        -0.640843
 H         2.807189         0.458099        -2.017615
 H         2.039088         1.847417        -1.393620
 H         4.555409         1.513979        -0.058934
 H         2.768578         1.625340         2.227932
 H         4.785903        -0.208298         2.301122
 H         3.102362        -1.557405        -0.693906
 H         2.107816        -2.073877         0.654383
