19
Iteration:  3889charge 0 multiplicity 1
 C         0.192694        -0.418730        -0.774398
 C         1.536820        -0.045638        -0.247376
 C         2.440676         0.998157        -0.985015
 C         3.499933         1.037518         0.092476
 C         2.687934         0.807261         1.367237
 O         1.420014         0.459119         1.066758
 C         3.586630        -0.283395         0.842973
 O         4.679587        -0.769303         1.602855
 C         2.631043        -1.201345         0.043796
 H        -0.134135         0.333894        -1.519714
 H         0.071291        -1.177680        -1.566150
 H        -0.579450        -0.599654        -0.119877
 H         2.886254         0.780645        -1.969815
 H         2.016863         1.909992        -1.121180
 H         4.360588         1.662571         0.123815
 H         2.721281         1.481612         2.279864
 H         4.304777        -1.281706         2.284788
 H         3.081263        -1.594972        -0.863765
 H         2.311371        -2.041900         0.615742
