19
Iteration:  3463
 C         0.222986        -0.501531        -0.854574
 C         1.586661        -0.063584        -0.234935
 C         2.450778         0.898003        -0.959441
 C         3.569518         1.060226         0.084834
 C         2.710260         0.893788         1.354916
 O         1.351188         0.638707         1.016765
 C         3.543542        -0.298214         0.881314
 O         4.656747        -0.820561         1.563705
 C         2.572836        -1.161886         0.164979
 H        -0.141758         0.360552        -1.375405
 H         0.474030        -1.420889        -1.530861
 H        -0.421327        -0.798313        -0.080225
 H         2.894319         0.558702        -1.869413
 H         1.893589         1.802589        -1.223930
 H         4.475469         1.476049        -0.074775
 H         2.969478         1.253622         2.356151
 H         4.275865        -1.381763         2.226950
 H         3.064084        -1.638579        -0.747230
 H         2.047970        -1.977550         0.716840
