19
Iteration:  2984charge 0 multiplicity 1
 C         0.200328        -0.356123        -0.909630
 C         1.536711        -0.118712        -0.289088
 C         2.584529         0.820508        -1.037454
 C         3.529795         1.076365         0.141506
 C         2.728589         0.788710         1.411867
 O         1.352066         0.578452         1.050739
 C         3.575052        -0.285875         0.823537
 O         4.709682        -0.670156         1.505433
 C         2.464661        -1.280192         0.273166
 H        -0.052535         0.237043        -1.730153
 H        -0.035290        -1.414035        -1.280858
 H        -0.574594        -0.304619        -0.203631
 H         3.042613         0.421183        -1.853969
 H         2.119101         1.805957        -1.316271
 H         4.422030         1.737921         0.180510
 H         2.772313         1.327470         2.389579
 H         4.452616        -1.062758         2.311680
 H         2.897224        -1.900334        -0.611500
 H         2.073950        -1.874192         1.174727
