19
Iteration:  1220
 C         0.122959        -0.332270        -0.764376
 C         1.569495        -0.228091        -0.237089
 C         2.459874         0.760577        -1.107955
 C         3.606070         0.995919        -0.069756
 C         2.791920         0.807914         1.343796
 O         1.401856         0.683958         0.977886
 C         3.558404        -0.287309         0.785206
 O         4.708815        -0.630421         1.616393
 C         2.461093        -1.246010         0.424354
 H        -0.608231        -0.364517         0.122306
 H        -0.151176         0.432859        -1.426921
 H        -0.179297        -1.285266        -1.140773
 H         2.671964         0.574667        -2.147733
 H         1.889639         1.743785        -1.026252
 H         4.491018         1.498485        -0.069473
 H         3.079863         1.375462         2.269308
 H         5.111664        -1.502331         1.300081
 H         2.664569        -2.049453        -0.257406
 H         1.964872        -1.682696         1.305438
