19
Iteration:  3970
 C         0.327285        -0.542896        -0.971021
 C         1.589830        -0.045952        -0.227829
 C         2.495868         0.960773        -0.999323
 C         3.499612         1.050550         0.238709
 C         2.688930         0.903490         1.458576
 O         1.301913         0.589863         1.084809
 C         3.519978        -0.296853         0.885681
 O         4.749800        -0.841717         1.289473
 C         2.469530        -1.183040         0.287570
 H        -0.610655        -0.051918        -0.650329
 H         0.572948        -0.212132        -1.977295
 H         0.002886        -1.644090        -1.029795
 H         2.969099         0.543324        -1.824577
 H         1.921239         1.947601        -1.129090
 H         4.401396         1.652883         0.327512
 H         2.791334         1.513933         2.396167
 H         4.727688        -1.155324         2.171661
 H         2.901323        -1.756057        -0.556419
 H         1.940652        -1.722272         1.139664
