19
Iteration:  3275charge 0 multiplicity 1
 C         0.319363        -0.468363        -0.919689
 C         1.571119        -0.089217        -0.230959
 C         2.554581         0.875653        -0.996090
 C         3.518090         1.083302         0.135613
 C         2.714959         0.830958         1.398303
 O         1.316379         0.642378         1.053298
 C         3.555788        -0.313340         0.870894
 O         4.672265        -0.774506         1.433183
 C         2.428179        -1.232945         0.268252
 H        -0.501109         0.179927        -0.687766
 H         0.438527        -0.440483        -2.071253
 H        -0.034217        -1.476637        -0.532238
 H         3.164642         0.491173        -1.877898
 H         2.186780         1.793427        -1.329004
 H         4.236595         1.951187         0.088231
 H         2.963923         1.380829         2.295129
 H         4.424640        -0.943470         2.398974
 H         2.815372        -1.885049        -0.529003
 H         2.077282        -1.928533         1.071541
