19
Iteration:  4940charge 0 multiplicity 1
 C         0.294110        -0.467459        -0.939129
 C         1.507085        -0.102077        -0.094794
 C         2.514234         0.818239        -1.058429
 C         3.520730         0.988285         0.015613
 C         2.735119         0.826399         1.441580
 O         1.373032         0.807833         1.027577
 C         3.565127        -0.297408         0.878040
 O         4.765108        -0.753373         1.444955
 C         2.356280        -1.250094         0.362372
 H         0.141886        -1.544245        -0.874976
 H        -0.645880        -0.081814        -0.564279
 H         0.425278        -0.201548        -2.000905
 H         2.853021         0.346317        -2.070070
 H         2.084953         1.674842        -1.460902
 H         4.366740         1.791022        -0.052970
 H         3.010442         1.466800         2.226588
 H         4.662434        -1.469554         2.145302
 H         2.628323        -1.996224        -0.431086
 H         1.890749        -1.797344         1.190941
