19
Iteration:   458
 C         0.284234        -0.658481        -0.621613
 C         1.549344        -0.041215        -0.155947
 C         2.513089         0.748957        -1.153396
 C         3.579696         0.924011        -0.052572
 C         2.796910         1.025103         1.241181
 O         1.391294         0.964564         0.958266
 C         3.538952        -0.269248         0.851189
 O         4.604045        -0.924929         1.506243
 C         2.418508        -1.179883         0.415054
 H        -0.001497        -1.502883        -0.023031
 H        -0.563825         0.184805        -0.588326
 H         0.335596        -0.892546        -1.645837
 H         2.871007         0.126858        -2.033978
 H         2.175109         1.689108        -1.544382
 H         4.383555         1.528361        -0.175999
 H         3.073683         1.854539         1.916539
 H         4.408068        -1.259040         2.430583
 H         2.830722        -1.856365        -0.349557
 H         1.931466        -1.846766         1.218428
