19
Iteration:  1459
 C         0.203372        -0.457074        -0.656311
 C         1.596151        -0.147185        -0.169978
 C         2.420956         0.822636        -1.068100
 C         3.547252         0.958449        -0.078692
 C         2.781599         0.921102         1.267605
 O         1.431858         0.762345         0.918847
 C         3.530453        -0.282063         0.931477
 O         4.645626        -0.853595         1.509516
 C         2.524880        -1.190550         0.305738
 H        -0.466087        -0.213909         0.260250
 H        -0.288375         0.191593        -1.393115
 H        -0.005683        -1.542160        -1.048392
 H         2.664992         0.419859        -1.972223
 H         1.686765         1.709964        -1.276360
 H         4.553066         1.519705        -0.050469
 H         2.881086         1.488485         2.206711
 H         4.821492        -0.549123         2.462083
 H         3.070720        -1.781713        -0.461889
 H         2.128462        -2.045514         0.958146
