19
Iteration:  2848
 C         0.203332        -0.357833        -0.825886
 C         1.603514        -0.108523        -0.285810
 C         2.546877         0.818345        -1.044375
 C         3.474473         1.001103         0.094151
 C         2.704744         0.850858         1.357218
 O         1.350046         0.654037         0.938064
 C         3.525837        -0.315467         0.878185
 O         4.717300        -0.655230         1.572793
 C         2.542831        -1.316485         0.299263
 H        -0.408507         0.451006        -0.313186
 H         0.246705        -0.168815        -1.853164
 H        -0.060751        -1.397655        -0.717018
 H         3.031155         0.323845        -1.921145
 H         2.021886         1.635381        -1.365355
 H         4.356975         1.457926         0.149731
 H         2.830868         1.342778         2.347997
 H         4.370616        -1.333554         2.235205
 H         2.987868        -1.987541        -0.485912
 H         1.866931        -1.920369         1.001083
