19
Iteration:  3155
 C         0.347916        -0.548283        -0.860109
 C         1.588498        -0.114333        -0.285857
 C         2.465352         0.883998        -0.977921
 C         3.566709         1.074695         0.149238
 C         2.690969         0.872400         1.437274
 O         1.348718         0.772369         0.964289
 C         3.504749        -0.305570         0.952769
 O         4.651775        -0.846328         1.425243
 C         2.530688        -1.219738         0.225091
 H        -0.201011         0.249998        -1.304910
 H         0.465298        -1.381752        -1.575038
 H        -0.472051        -0.969217        -0.142326
 H         2.847176         0.734627        -2.049886
 H         1.829819         1.784875        -1.072059
 H         4.276740         1.788629         0.252622
 H         2.917917         1.488295         2.345903
 H         4.397652        -1.302293         2.233484
 H         3.035087        -1.765607        -0.533883
 H         2.096844        -1.917569         0.851387
