19
Iteration:  2030
 C         0.162531        -0.412454        -0.767329
 C         1.478630        -0.169571        -0.251985
 C         2.482276         0.861848        -0.967043
 C         3.558757         1.078478         0.073694
 C         2.829153         0.810403         1.337647
 O         1.444144         0.628516         1.034185
 C         3.594944        -0.315378         0.738349
 O         4.580941        -0.684606         1.669351
 C         2.510177        -1.285162         0.153223
 H        -0.152585        -1.565646        -0.793205
 H        -0.550507         0.237240        -0.095322
 H         0.041027        -0.075750        -1.811094
 H         2.843108         0.420488        -1.878059
 H         1.749071         1.689743        -1.345723
 H         4.545377         1.629787        -0.177162
 H         2.955488         1.042950         2.363034
 H         5.390726        -0.295013         1.368709
 H         2.825440        -1.871548        -0.778072
 H         2.090351        -1.892134         1.027840
