19
Iteration:  1311
 C         0.157461        -0.518474        -0.686529
 C         1.539226        -0.079148        -0.216409
 C         2.398585         0.823354        -1.092174
 C         3.628058         0.865776        -0.101925
 C         2.776329         0.981269         1.280688
 O         1.377732         0.785581         0.951965
 C         3.583649        -0.244783         0.909707
 O         4.668768        -0.953065         1.574312
 C         2.539483        -1.143296         0.353142
 H        -0.051153        -1.454707        -0.233664
 H        -0.554222         0.209687        -0.251737
 H        -0.063903        -0.725755        -1.808276
 H         2.587610         0.387175        -2.181248
 H         1.961964         1.738284        -1.083361
 H         4.581183         1.534374        -0.231699
 H         3.001737         1.714317         2.059347
 H         4.980543        -0.161531         1.993733
 H         3.042510        -1.990938        -0.215948
 H         1.835943        -1.551231         1.099088
