19
Iteration:   615charge 0 multiplicity 1
 C         0.185227        -0.547334        -0.631619
 C         1.578574        -0.074828        -0.198471
 C         2.552383         0.657139        -1.107314
 C         3.545635         0.972631        -0.040057
 C         2.782295         1.002647         1.229516
 O         1.393796         0.811236         0.970537
 C         3.618148        -0.232936         0.881525
 O         4.643850        -0.866159         1.546573
 C         2.408766        -1.095642         0.297501
 H        -0.411025        -0.605460         0.303670
 H        -0.267977         0.102732        -1.279051
 H         0.287163        -1.601485        -1.060187
 H         2.852364         0.142735        -1.932153
 H         1.942338         1.592825        -1.411993
 H         4.392821         1.642200        -0.063684
 H         3.122385         1.604107         2.082212
 H         4.265832        -1.432265         2.241072
 H         2.790657        -1.833578        -0.468641
 H         1.913402        -1.662872         1.064253
