19
Iteration:  3795
 C         0.261277        -0.347971        -0.944681
 C         1.538684        -0.106028        -0.189278
 C         2.471470         0.841667        -0.953059
 C         3.507853         1.092940         0.196908
 C         2.684740         0.792884         1.377241
 O         1.310482         0.621529         1.076064
 C         3.508363        -0.340918         0.861598
 O         4.763608        -0.731293         1.440696
 C         2.596770        -1.260558         0.213007
 H        -0.438611         0.479181        -1.071019
 H         0.459246        -0.404728        -2.021762
 H        -0.296995        -1.308218        -0.642599
 H         2.891671         0.338861        -1.842249
 H         1.882729         1.774751        -1.441842
 H         4.340125         1.750283        -0.056606
 H         2.811096         1.235418         2.376873
 H         4.623458        -1.189606         2.324804
 H         3.032981        -1.713438        -0.698070
 H         2.217678        -2.027915         0.996603
