19
Iteration:   674
 C         0.157293        -0.310237        -0.781413
 C         1.497567        -0.166013        -0.153063
 C         2.490273         0.696075        -1.094324
 C         3.594651         0.831514        -0.040724
 C         2.757408         0.922681         1.272548
 O         1.337007         0.764461         0.919169
 C         3.599110        -0.323658         0.904757
 O         4.869227        -0.624933         1.524109
 C         2.365027        -1.366135         0.432479
 H        -0.465610        -1.118191        -0.424059
 H        -0.527779         0.601628        -0.478065
 H         0.119736        -0.326057        -1.866862
 H         2.850309         0.162652        -2.055941
 H         2.069316         1.620356        -1.266482
 H         4.640518         1.320357        -0.066798
 H         2.978077         1.724407         1.980006
 H         4.646032        -0.488248         2.447877
 H         2.608831        -2.146516        -0.249300
 H         1.791279        -1.752016         1.326076
