19
Iteration:  4471charge 0 multiplicity 1
 C         0.090595        -0.441182        -0.718363
 C         1.546107        -0.052349        -0.259655
 C         2.670700         0.826568        -1.055193
 C         3.559013         0.951191         0.114898
 C         2.696839         0.865668         1.348818
 O         1.306147         0.680445         0.924109
 C         3.531210        -0.350750         0.918933
 O         4.701399        -0.666365         1.573105
 C         2.552544        -1.209537         0.141761
 H        -0.112079        -0.114233        -1.748108
 H         0.017558        -1.505279        -0.667675
 H        -0.512065         0.047456         0.008511
 H         2.950099         0.289321        -1.923802
 H         2.230606         1.724301        -1.366726
 H         4.552116         1.339346         0.113486
 H         2.791858         1.431639         2.310713
 H         4.535139        -1.461646         2.192202
 H         3.115592        -1.805913        -0.588137
 H         2.083158        -1.994247         0.744456
