19
Iteration:  1599
 C         0.092878        -0.455388        -0.725532
 C         1.569812        -0.116391        -0.171888
 C         2.452427         0.713992        -1.079652
 C         3.593361         0.986399        -0.074211
 C         2.847200         0.951922         1.260796
 O         1.442002         0.768392         1.046959
 C         3.598570        -0.269259         0.831096
 O         4.631175        -0.769561         1.554902
 C         2.511215        -1.235580         0.301405
 H        -0.345647        -1.383696        -0.211517
 H        -0.594701         0.298305        -0.365805
 H         0.109433        -0.540929        -1.800094
 H         2.672431         0.007627        -1.903294
 H         1.837705         1.588082        -1.555797
 H         4.492957         1.504661        -0.205937
 H         3.039821         1.482051         2.203813
 H         4.285830        -0.860875         2.510054
 H         2.855293        -1.822360        -0.544810
 H         2.037136        -1.914282         1.064932
