19
Iteration:  1208charge 0 multiplicity 1
 C         0.176470        -0.422287        -0.678157
 C         1.563283        -0.117800        -0.202982
 C         2.497364         0.840952        -1.078922
 C         3.592790         0.889942        -0.062648
 C         2.790615         0.875111         1.259617
 O         1.403051         0.675520         1.025373
 C         3.568905        -0.343264         0.807037
 O         4.579954        -0.615482         1.596199
 C         2.490621        -1.266102         0.326842
 H        -0.521697        -0.168900         0.182532
 H         0.003163         0.336592        -1.437290
 H         0.128233        -1.312632        -1.205968
 H         2.720810         0.375325        -1.991741
 H         1.833327         1.783886        -1.318547
 H         4.429186         1.516756        -0.121672
 H         3.161328         1.325843         2.220271
 H         5.120925        -1.370954         1.292593
 H         2.657831        -2.036077        -0.380767
 H         2.114719        -1.643103         1.296382
