19
Iteration:  3826
 C         0.312345        -0.512945        -0.966674
 C         1.561245        -0.065423        -0.311221
 C         2.536114         0.968338        -0.935797
 C         3.509224         1.082322         0.213770
 C         2.617045         0.888964         1.393326
 O         1.289319         0.576242         1.116211
 C         3.534740        -0.310871         0.943179
 O         4.771356        -0.877092         1.309511
 C         2.479403        -1.184828         0.259590
 H        -0.112220         0.435225        -1.400213
 H         0.573890        -1.150927        -1.853663
 H        -0.320292        -0.954175        -0.169201
 H         2.921708         0.607664        -1.846129
 H         1.773153         1.884334        -1.066761
 H         4.412116         1.685567         0.109887
 H         2.718648         1.488791         2.344355
 H         5.045852        -0.783003         2.228421
 H         2.976474        -1.810474        -0.512874
 H         1.973920        -1.741507         1.125038
