19
Iteration:   242charge 0 multiplicity 1
 C         0.162099        -0.228965        -0.766818
 C         1.523295        -0.093285        -0.219515
 C         2.453363         0.524334        -1.184674
 C         3.522599         0.827115        -0.132110
 C         2.769246         0.875268         1.262699
 O         1.342660         0.697445         1.090092
 C         3.585881        -0.276142         0.961268
 O         4.797118        -0.664208         1.615471
 C         2.485400        -1.214017         0.355016
 H        -0.382099        -1.027937        -0.373252
 H        -0.342907         0.786567        -0.415355
 H         0.175168        -0.205842        -1.815852
 H         2.700935        -0.314724        -1.800943
 H         2.130772         1.473337        -1.869029
 H         4.312261         1.708267        -0.487146
 H         3.037711         1.753169         1.786289
 H         4.708312        -0.780447         2.591379
 H         3.009002        -1.822282        -0.308516
 H         1.933189        -1.834571         1.026069
