19
Iteration:  2388
 C         0.280837        -0.456772        -0.842467
 C         1.548616        -0.144926        -0.234503
 C         2.595960         0.836705        -0.978018
 C         3.533221         1.043090         0.114559
 C         2.670450         0.918012         1.328460
 O         1.325188         0.595822         1.009751
 C         3.501923        -0.341300         0.854318
 O         4.694190        -0.722236         1.442094
 C         2.468143        -1.219823         0.312315
 H        -0.438280         0.283501        -0.313989
 H         0.328143        -0.182533        -1.964015
 H        -0.039924        -1.522864        -0.673190
 H         3.000714         0.342597        -1.915786
 H         2.344093         1.770211        -1.357630
 H         4.561754         1.612340         0.078696
 H         2.897421         1.452931         2.240023
 H         4.707179        -0.398623         2.371389
 H         2.718259        -1.911035        -0.497223
 H         1.955094        -1.806407         1.070551
