19
Iteration:  3141charge 0 multiplicity 1
 C         0.210582        -0.525110        -0.928987
 C         1.583615        -0.088292        -0.227965
 C         2.549045         1.002886        -1.023089
 C         3.495446         1.022403         0.148755
 C         2.722021         0.883057         1.379620
 O         1.348267         0.622602         0.995795
 C         3.505175        -0.273500         0.897613
 O         4.707982        -0.813518         1.463632
 C         2.517070        -1.231009         0.302960
 H        -0.353771         0.433761        -1.306507
 H         0.483788        -1.009032        -1.824948
 H        -0.313339        -1.120276        -0.170644
 H         3.012399         0.446976        -1.894859
 H         2.051699         1.887669        -1.226208
 H         4.529883         1.539721         0.022686
 H         2.795458         1.400099         2.332245
 H         4.610094        -1.104821         2.426714
 H         2.929826        -1.894429        -0.462446
 H         1.896148        -1.768036         1.091029
