19
Iteration:   735charge 0 multiplicity 1
 C         0.156991        -0.605440        -0.630539
 C         1.502966        -0.075476        -0.184057
 C         2.482997         0.773221        -1.084242
 C         3.626060         0.922858        -0.039821
 C         2.767990         1.042345         1.236823
 O         1.366415         0.923647         0.870369
 C         3.562731        -0.232632         0.907954
 O         4.681898        -0.932125         1.534872
 C         2.537978        -1.196614         0.386109
 H        -0.016920        -1.417486         0.084098
 H        -0.522995         0.145280        -0.499907
 H         0.197999        -1.058210        -1.673278
 H         2.737252         0.318990        -1.988371
 H         2.230691         1.920939        -1.327431
 H         4.372009         1.667757        -0.096304
 H         3.047055         1.575827         2.156097
 H         4.182593        -1.677824         1.941327
 H         2.928204        -1.918060        -0.400085
 H         1.959737        -1.709003         1.134824
