19
Iteration:  4344charge 0 multiplicity 1
 C         0.211449        -0.479130        -0.841177
 C         1.533919         0.000932        -0.219788
 C         2.522936         0.890637        -1.028001
 C         3.551122         1.055405         0.090851
 C         2.706840         0.899396         1.441013
 O         1.332163         0.567435         0.999258
 C         3.572342        -0.341492         0.882020
 O         4.618222        -0.812305         1.608250
 C         2.576416        -1.237884         0.178993
 H         0.301590        -1.589516        -1.067305
 H        -0.629511        -0.110961        -0.148725
 H         0.066125         0.102576        -1.758688
 H         2.861905         0.290333        -1.869724
 H         2.036654         1.943138        -1.355349
 H         4.352438         1.700258        -0.023972
 H         2.918653         1.475481         2.340340
 H         5.365653        -0.603907         1.043701
 H         3.050621        -1.616414        -0.756638
 H         1.901379        -1.892282         0.769063
