19
Iteration:  4910
 C         0.174999        -0.601514        -0.742004
 C         1.552386        -0.120408        -0.185749
 C         2.639916         0.896148        -1.051272
 C         3.622398         0.957928         0.087177
 C         2.666915         0.962273         1.392929
 O         1.360215         0.747482         0.953658
 C         3.506381        -0.238924         0.958515
 O         4.657144        -0.862028         1.424697
 C         2.472261        -1.129193         0.208156
 H         0.114591        -1.646493        -0.419635
 H        -0.627325        -0.074814        -0.253576
 H         0.058797        -0.338610        -1.826823
 H         3.086170         0.397277        -2.018111
 H         2.223260         1.902111        -1.162960
 H         4.574024         1.541714         0.034603
 H         2.749048         1.688914         2.139668
 H         4.557875        -1.529150         2.085071
 H         2.899499        -1.733765        -0.609884
 H         2.000325        -1.843674         0.889450
