19
Iteration:  4030charge 0 multiplicity 1
 C         0.088301        -0.409609        -0.733184
 C         1.583511        -0.003050        -0.332509
 C         2.543039         0.881188        -0.934661
 C         3.587369         1.042767         0.131837
 C         2.649623         0.729550         1.404848
 O         1.353192         0.480673         1.056209
 C         3.528046        -0.343241         0.858084
 O         4.685156        -0.660091         1.580328
 C         2.623257        -1.152620        -0.022621
 H        -0.554561         0.444445        -0.485664
 H         0.155216        -0.328202        -1.843229
 H        -0.066027        -1.401084        -0.471717
 H         2.932268         0.506762        -2.019125
 H         2.148100         1.803759        -1.265210
 H         4.451533         1.854867         0.059834
 H         2.858424         1.165556         2.344920
 H         4.426667        -1.227350         2.322764
 H         3.101467        -1.628359        -0.871566
 H         2.232638        -2.019693         0.515222
