19
Iteration:  2207charge 0 multiplicity 1
 C         0.263411        -0.597994        -0.820049
 C         1.515234        -0.037121        -0.220200
 C         2.420237         0.862067        -1.009164
 C         3.527980         0.970094         0.067927
 C         2.744979         0.892821         1.395742
 O         1.393018         0.746094         0.983282
 C         3.518716        -0.292474         0.940826
 O         4.617907        -0.874826         1.516627
 C         2.592900        -1.178694         0.214892
 H         0.267701        -0.527079        -1.986291
 H        -0.013575        -1.568173        -0.451612
 H        -0.439480         0.197074        -0.457998
 H         2.715506         0.421756        -1.952288
 H         1.901381         1.938107        -1.150226
 H         4.413356         1.648569        -0.075864
 H         2.901811         1.512201         2.259344
 H         5.333291        -0.215992         1.847997
 H         3.170473        -1.463232        -0.691135
 H         2.105153        -2.072258         0.751515
