19
Iteration:  4867charge 0 multiplicity 1
 C         0.157075        -0.393956        -0.772744
 C         1.542764        -0.115110        -0.246781
 C         2.460004         0.836017        -1.002727
 C         3.543107         1.065288         0.034779
 C         2.802559         0.843501         1.405522
 O         1.450191         0.613580         1.003988
 C         3.601943        -0.313994         0.786991
 O         4.666895        -0.760429         1.680419
 C         2.475722        -1.243356         0.096145
 H        -0.409345        -1.120968        -0.164979
 H        -0.458805         0.504544        -0.809239
 H         0.254795        -0.581144        -1.886072
 H         2.834899         0.477631        -2.002470
 H         1.877561         1.695049        -1.352116
 H         4.440429         1.722659        -0.129674
 H         2.981798         1.329632         2.319609
 H         4.223107        -0.788132         2.554167
 H         2.857166        -1.701264        -0.830621
 H         2.072254        -2.090718         0.669149
