19
Iteration:  3892charge 0 multiplicity 1
 C         0.197129        -0.393990        -0.794076
 C         1.546278        -0.077875        -0.245910
 C         2.440067         0.970028        -1.003820
 C         3.492862         1.029779         0.083516
 C         2.700827         0.796754         1.359355
 O         1.421518         0.440772         1.071042
 C         3.560465        -0.255176         0.855671
 O         4.687294        -0.756613         1.608734
 C         2.634672        -1.179231         0.037281
 H        -0.192387         0.366109        -1.466263
 H         0.069374        -1.137327        -1.562163
 H        -0.574667        -0.606506        -0.003170
 H         2.895679         0.817162        -1.908059
 H         1.981953         2.012832        -1.018439
 H         4.466628         1.664399         0.182615
 H         2.744160         1.401594         2.203546
 H         4.292015        -1.368773         2.277991
 H         3.054716        -1.572919        -0.897046
 H         2.197309        -1.971794         0.741525
