19
Iteration:  1984
 C         0.160840        -0.499909        -0.896219
 C         1.526574        -0.132225        -0.185672
 C         2.459708         0.790594        -0.967938
 C         3.520842         1.055287         0.101444
 C         2.703628         0.958493         1.410044
 O         1.364089         0.710294         1.044551
 C         3.500637        -0.281446         0.989775
 O         4.827716        -0.869038         1.338357
 C         2.537485        -1.191792         0.245687
 H        -0.341758        -1.318985        -0.364301
 H        -0.428984         0.470032        -0.858801
 H         0.242684        -0.884207        -1.991466
 H         2.868305         0.394529        -1.805191
 H         1.972804         1.750101        -1.444539
 H         4.448618         1.693058         0.107139
 H         2.877922         1.612954         2.294498
 H         4.814890        -0.758144         2.350742
 H         3.044785        -1.568548        -0.688570
 H         2.055538        -2.000311         0.836043
