19
Iteration:  1520
 C         0.218058        -0.382517        -0.725294
 C         1.557688        -0.091296        -0.141449
 C         2.529117         0.667422        -1.099646
 C         3.533232         0.951385        -0.031491
 C         2.755222         0.934825         1.287037
 O         1.371612         0.759180         1.067944
 C         3.523969        -0.258510         0.821775
 O         4.693652        -0.726105         1.448500
 C         2.471384        -1.270404         0.344335
 H        -0.151227        -1.328470        -0.311966
 H        -0.368132         0.577990        -0.546617
 H         0.267492        -0.523435        -1.750235
 H         2.919805        -0.097711        -1.934162
 H         1.918652         1.421965        -1.555837
 H         4.525272         1.557069        -0.097467
 H         2.914113         1.592777         2.119079
 H         4.336531        -1.300956         2.218948
 H         2.860863        -2.080534        -0.276699
 H         2.207614        -1.708276         1.332799
