19
Iteration:  2334charge 0 multiplicity 1
 C         0.285699        -0.545790        -0.795863
 C         1.547592        -0.114320        -0.182713
 C         2.496434         0.858215        -1.008094
 C         3.573027         1.090438         0.036981
 C         2.730494         0.964209         1.350119
 O         1.376007         0.671741         0.994316
 C         3.530651        -0.279120         0.855147
 O         4.557526        -0.817959         1.636184
 C         2.536459        -1.214518         0.175366
 H        -0.516059         0.257951        -0.777163
 H         0.511364        -0.962550        -1.825957
 H         0.016179        -1.412926        -0.175898
 H         2.780768         0.391874        -1.981662
 H         1.993547         1.813087        -1.181831
 H         4.424819         1.854487        -0.026877
 H         2.933675         1.556120         2.218819
 H         5.257720        -1.267478         1.091454
 H         2.643464        -1.912238        -0.659421
 H         2.145656        -1.842968         0.995775
