19
Iteration:  4674
 C         0.269521        -0.442408        -0.899883
 C         1.563305        -0.094616        -0.225884
 C         2.563832         0.844861        -0.984069
 C         3.562479         1.131831         0.185174
 C         2.611248         0.975661         1.372620
 O         1.227170         0.688958         1.027402
 C         3.561093        -0.338782         0.884563
 O         4.801733        -0.888618         1.334028
 C         2.481482        -1.273128         0.323231
 H         0.196230        -1.559894        -0.830551
 H        -0.602114        -0.043952        -0.414970
 H         0.089179        -0.021536        -1.926635
 H         3.107740         0.387455        -1.854633
 H         1.918453         1.741989        -1.252541
 H         4.620826         1.561387         0.221511
 H         2.730689         1.394612         2.400310
 H         4.889466        -0.955225         2.347536
 H         2.878849        -1.842783        -0.536277
 H         1.889377        -1.866349         1.115711
