19
Iteration:  3167
 C         0.321767        -0.585535        -0.854944
 C         1.605101        -0.087501        -0.214623
 C         2.494533         0.881757        -0.934633
 C         3.526274         1.038877         0.163872
 C         2.643064         0.905213         1.389190
 O         1.324652         0.787853         0.980367
 C         3.533401        -0.264496         0.896024
 O         4.671944        -0.879234         1.475849
 C         2.542643        -1.172363         0.147139
 H        -0.081777         0.107888        -1.489970
 H         0.545213        -1.558001        -1.432210
 H        -0.239146        -0.781856         0.118437
 H         2.892472         0.455549        -1.887220
 H         1.936820         1.883409        -1.054521
 H         4.350582         1.592303        -0.092213
 H         2.742879         1.439646         2.337021
 H         4.377845        -1.609085         2.150198
 H         2.950858        -1.478962        -0.795603
 H         2.114405        -1.931659         0.670341
