19
Iteration:  4094charge 0 multiplicity 1
 C         0.325783        -0.528861        -1.038183
 C         1.498950        -0.023665        -0.186710
 C         2.507259         1.008967        -0.937019
 C         3.520167         1.066548         0.181486
 C         2.664458         0.785913         1.479448
 O         1.280098         0.569419         1.225835
 C         3.522262        -0.246638         0.869489
 O         4.753551        -0.843712         1.289020
 C         2.538000        -1.175928         0.228296
 H         0.128840         0.283877        -1.820232
 H         0.786235        -1.468027        -1.479814
 H        -0.613388        -0.860005        -0.622289
 H         2.972385         0.789145        -1.975635
 H         1.924831         1.921104        -1.114836
 H         4.460836         1.777626         0.089941
 H         2.714771         1.459511         2.310561
 H         4.656925        -1.202836         2.143437
 H         2.942579        -1.618418        -0.734019
 H         2.099286        -2.089622         0.739346
