19
Iteration:  3778charge 0 multiplicity 1
 C         0.210620        -0.390439        -0.902548
 C         1.531938        -0.114744        -0.242181
 C         2.549359         0.867689        -0.992724
 C         3.504060         0.965241         0.112912
 C         2.724940         0.845312         1.433949
 O         1.332899         0.538432         1.094116
 C         3.590972        -0.261013         0.845768
 O         4.717552        -0.637923         1.567437
 C         2.480632        -1.267144         0.065303
 H        -0.369832         0.493008        -0.521864
 H         0.275833        -0.183833        -2.003884
 H        -0.130645        -1.298083        -0.452215
 H         2.948185         0.365452        -1.921259
 H         2.069867         1.736937        -1.221489
 H         4.406988         1.670764         0.198890
 H         2.945451         1.341773         2.339344
 H         4.553296        -1.411313         2.199211
 H         2.920062        -1.678835        -0.845919
 H         2.000998        -1.941272         0.729807
