19
Iteration:   408charge 0 multiplicity 1
 C         0.179034        -0.333014        -0.716383
 C         1.561024        -0.113022        -0.145259
 C         2.511965         0.597809        -1.116349
 C         3.517846         0.850718        -0.015011
 C         2.748998         0.888041         1.303765
 O         1.415876         0.891391         0.997560
 C         3.541714        -0.339655         0.785831
 O         4.722375        -0.630368         1.533288
 C         2.455234        -1.311581         0.338875
 H        -0.593285        -0.350780         0.095539
 H        -0.064552         0.266319        -1.527841
 H         0.183244        -1.377582        -1.183299
 H         2.855069         0.007235        -1.915385
 H         1.975047         1.547774        -1.503781
 H         4.395262         1.484588        -0.069963
 H         3.165677         1.450461         2.096436
 H         4.631878        -0.973032         2.398541
 H         2.604342        -2.149824        -0.368136
 H         1.987886        -1.699881         1.183001
