19
Iteration:  4066charge 0 multiplicity 1
 C         0.257341        -0.364618        -0.882277
 C         1.550837        -0.110436        -0.296494
 C         2.462147         0.944234        -0.919859
 C         3.494457         1.136112         0.202860
 C         2.683602         0.763560         1.398864
 O         1.328517         0.510037         1.039463
 C         3.557671        -0.320620         0.903429
 O         4.762567        -0.769257         1.435274
 C         2.582315        -1.252754         0.119717
 H        -0.219450         0.556287        -1.173645
 H         0.415955        -1.012013        -1.732500
 H        -0.551688        -0.812029        -0.224737
 H         2.941439         0.747046        -1.887406
 H         1.762601         1.799565        -0.945601
 H         4.217332         1.900054         0.164630
 H         2.776709         1.258918         2.424375
 H         4.692194        -0.928677         2.374927
 H         3.032787        -1.799456        -0.708388
 H         1.956816        -1.873941         0.722499
