19
Iteration:  3370charge 0 multiplicity 1
 C         0.218684        -0.368889        -0.937122
 C         1.562292        -0.122742        -0.315324
 C         2.477372         0.890739        -1.005138
 C         3.543180         0.988260         0.054247
 C         2.664876         0.894635         1.414117
 O         1.321154         0.574898         1.073320
 C         3.610131        -0.315453         0.908650
 O         4.688349        -0.746872         1.660748
 C         2.531535        -1.250929         0.192524
 H        -0.283316         0.685877        -0.904016
 H         0.357386        -0.629621        -1.918794
 H        -0.304567        -1.091507        -0.242970
 H         2.777373         0.435665        -2.027577
 H         1.872570         1.808070        -1.257407
 H         4.385508         1.658277         0.066927
 H         2.798907         1.509615         2.330975
 H         5.503043        -1.068958         1.112158
 H         2.970827        -1.897461        -0.567703
 H         2.007191        -2.007486         0.859551
