19
Iteration:  2127charge 0 multiplicity 1
 C         0.240526        -0.453026        -0.907854
 C         1.514562        -0.077983        -0.182734
 C         2.477727         0.841419        -0.952463
 C         3.566010         0.892019         0.056537
 C         2.698213         0.904442         1.380319
 O         1.354758         0.610176         1.082190
 C         3.531205        -0.263865         0.946701
 O         4.744322        -0.782921         1.482542
 C         2.457249        -1.192824         0.224464
 H         0.255890        -1.484676        -1.137460
 H        -0.655025        -0.276684        -0.274297
 H         0.051041         0.101975        -1.779518
 H         2.777229         0.522387        -1.937615
 H         1.989062         1.889515        -1.308724
 H         4.398138         1.610304         0.114942
 H         2.950186         1.715408         2.059838
 H         5.460891        -0.107594         1.227156
 H         2.864631        -1.752422        -0.677700
 H         2.031641        -2.023739         0.837490
