19
Iteration:  1808charge 0 multiplicity 1
 C         0.166982        -0.606502        -0.863577
 C         1.511591        -0.024698        -0.182322
 C         2.491534         0.765872        -1.020348
 C         3.562372         1.031192         0.012365
 C         2.830770         0.982668         1.333799
 O         1.427666         0.682721         1.112750
 C         3.586339        -0.212384         0.815908
 O         4.637729        -0.838890         1.559409
 C         2.424203        -1.136980         0.301185
 H        -0.258727        -1.505815        -0.408317
 H        -0.718768        -0.023498        -0.678192
 H         0.236683        -0.634191        -2.058220
 H         2.845666         0.097654        -1.736713
 H         2.049586         1.718315        -1.448766
 H         4.468197         1.772273        -0.044883
 H         3.051102         1.605379         2.197304
 H         5.248977        -1.215752         0.951581
 H         2.756926        -1.914616        -0.424725
 H         1.926529        -1.743717         1.071255
