19
Iteration:   843charge 0 multiplicity 1
 C         0.157481        -0.489994        -0.679403
 C         1.538955        -0.109768        -0.207636
 C         2.484793         0.712642        -1.080248
 C         3.596788         0.970866         0.015432
 C         2.806355         0.952394         1.337626
 O         1.398154         0.830817         0.937407
 C         3.573472        -0.315867         0.862647
 O         4.702310        -0.754282         1.454443
 C         2.428484        -1.211652         0.368576
 H        -0.482452        -0.843897         0.182045
 H        -0.322002         0.304350        -1.210691
 H         0.244458        -1.410666        -1.413783
 H         2.961722         0.137556        -1.860392
 H         2.022057         1.642506        -1.541476
 H         4.478967         1.657963        -0.223450
 H         3.135085         1.325649         2.310214
 H         4.387700        -1.103313         2.283245
 H         2.587216        -2.036982        -0.410432
 H         1.887363        -1.748728         1.133132
