19
Iteration:  1515
 C         0.231318        -0.364114        -0.693318
 C         1.576604        -0.102165        -0.156484
 C         2.532302         0.641460        -1.126768
 C         3.507560         0.955260        -0.075727
 C         2.762351         0.923860         1.348864
 O         1.394414         0.724906         1.083411
 C         3.560438        -0.272808         0.809907
 O         4.659056        -0.698718         1.467169
 C         2.448863        -1.239628         0.316781
 H        -0.255695        -1.247352        -0.260462
 H        -0.411742         0.483698        -0.653327
 H         0.335744        -0.606521        -1.856346
 H         2.953776        -0.026221        -1.805600
 H         1.999232         1.489650        -1.636706
 H         4.398776         1.446174        -0.175080
 H         3.094024         1.466157         2.262007
 H         4.375792        -1.055872         2.291418
 H         2.803094        -2.037672        -0.368620
 H         1.958592        -1.584579         1.240150
