19
Iteration:  4692
 C         0.172541        -0.329590        -0.844818
 C         1.556715        -0.143667        -0.192726
 C         2.579999         0.808921        -0.987402
 C         3.471608         1.004689         0.176105
 C         2.622696         0.885708         1.419330
 O         1.356716         0.623622         0.948944
 C         3.544685        -0.261258         0.896784
 O         4.742581        -0.858361         1.394350
 C         2.586572        -1.235399         0.230911
 H        -0.254366        -1.325813        -0.777367
 H        -0.483417         0.395486        -0.303861
 H         0.251020        -0.019658        -1.910525
 H         3.071558         0.207132        -1.713116
 H         2.061520         1.755395        -1.347883
 H         4.108372         1.811630         0.147353
 H         2.689707         1.650489         2.222735
 H         4.776224        -0.549814         2.353157
 H         3.032154        -1.759035        -0.647706
 H         2.279717        -1.931314         1.028906
