19
Iteration:  2769
 C         0.350488        -0.611753        -0.828017
 C         1.589063        -0.066694        -0.245192
 C         2.549036         0.923985        -0.957320
 C         3.532542         1.067605         0.112487
 C         2.734222         0.949994         1.407569
 O         1.356607         0.716335         0.998811
 C         3.463432        -0.276058         0.822216
 O         4.557226        -0.843082         1.421005
 C         2.542666        -1.284848         0.278745
 H        -0.218865         0.245376        -1.435197
 H         0.679914        -1.387345        -1.641160
 H        -0.343847        -0.963444        -0.079441
 H         3.040416         0.490928        -1.925380
 H         1.975252         1.762939        -1.199684
 H         4.534062         1.730682         0.048000
 H         2.819745         1.495015         2.325897
 H         4.367578        -0.926306         2.382010
 H         2.788867        -1.883331        -0.575497
 H         2.132726        -1.720424         1.220794
