19
Iteration:  3460charge 0 multiplicity 1
 C         0.233843        -0.510080        -0.858379
 C         1.599680        -0.054567        -0.265278
 C         2.478856         0.920983        -0.948518
 C         3.553536         1.052575         0.089362
 C         2.711977         0.905587         1.342836
 O         1.334608         0.633430         1.044892
 C         3.535134        -0.277165         0.891159
 O         4.665632        -0.847499         1.548573
 C         2.565943        -1.163181         0.165415
 H        -0.219054         0.321570        -1.378901
 H         0.417223        -1.460824        -1.433836
 H        -0.529509        -0.820913        -0.092809
 H         2.932314         0.565860        -2.000554
 H         1.874379         1.767634        -1.217730
 H         4.609833         1.485590        -0.169926
 H         2.804591         1.364952         2.309834
 H         4.331821        -1.401800         2.348440
 H         3.071018        -1.624628        -0.740230
 H         2.094490        -2.015867         0.811781
