19
Iteration:    87
 C         0.173039        -0.315318        -0.714999
 C         1.528965        -0.156072        -0.155391
 C         2.461469         0.591755        -1.052425
 C         3.543700         0.928633        -0.020190
 C         2.809605         0.938757         1.252171
 O         1.449108         0.798722         0.965842
 C         3.480765        -0.353490         0.903868
 O         4.701514        -0.602985         1.498028
 C         2.503093        -1.379600         0.344481
 H        -0.528348        -0.835723        -0.080717
 H        -0.259797         0.653111        -0.909617
 H         0.279217        -0.659310        -1.738829
 H         2.791590        -0.035009        -1.941998
 H         1.966734         1.420995        -1.513835
 H         4.367403         1.489296        -0.149440
 H         3.027407         1.465114         2.219494
 H         4.734085        -0.668782         2.455833
 H         2.798032        -1.792309        -0.581219
 H         1.948733        -1.978955         1.054299
