19
Iteration:  1756
 C         0.033970        -0.409232        -0.640061
 C         1.488437        -0.094747        -0.231185
 C         2.565642         0.746150        -1.075826
 C         3.608647         0.934507         0.024262
 C         2.774179         0.885262         1.267775
 O         1.397552         0.687545         1.030892
 C         3.499549        -0.306420         0.913045
 O         4.714247        -0.709041         1.584083
 C         2.522341        -1.269661         0.163390
 H        -0.421188        -1.295861        -0.275377
 H        -0.636570         0.486231        -0.606881
 H        -0.013541        -0.621026        -1.766675
 H         3.076819         0.303013        -1.926458
 H         2.156290         1.825848        -1.395303
 H         4.588911         1.392736        -0.196469
 H         2.922359         1.504797         2.145476
 H         5.023015        -0.076132         2.207481
 H         2.991076        -1.600641        -0.820559
 H         2.147970        -2.167226         0.672155
