19
Iteration:   176
 C         0.219286        -0.644231        -0.625646
 C         1.518891         0.054272        -0.194367
 C         2.524880         0.756685        -1.113209
 C         3.554136         0.943045        -0.025374
 C         2.754954         1.073242         1.263277
 O         1.354928         0.830514         0.972235
 C         3.579435        -0.312599         0.958844
 O         4.730807        -0.954453         1.491192
 C         2.427082        -1.094421         0.331171
 H        -0.395045        -0.728336         0.205952
 H        -0.292429        -0.271244        -1.553848
 H         0.532940        -1.555136        -1.003104
 H         2.867913         0.040473        -1.874964
 H         2.198691         1.637361        -1.760751
 H         4.432439         1.678345        -0.145070
 H         2.993773         1.939855         1.846775
 H         4.332246        -1.469828         2.198255
 H         2.713656        -1.630576        -0.517049
 H         1.841066        -1.720328         0.981773
