19
Iteration:  4260
 C         0.260836        -0.531111        -0.867624
 C         1.568418        -0.028025        -0.226186
 C         2.575733         0.908586        -0.907544
 C         3.510608         1.108323         0.240471
 C         2.585693         0.820930         1.426153
 O         1.278920         0.629554         1.023459
 C         3.492340        -0.251608         0.893299
 O         4.782094        -0.801257         1.353249
 C         2.552977        -1.144796         0.197115
 H        -0.539377        -0.637309        -0.128107
 H        -0.185421         0.134083        -1.689153
 H         0.348940        -1.483468        -1.418490
 H         3.061344         0.318402        -1.780015
 H         2.163661         1.712766        -1.363964
 H         4.441984         1.656264         0.239923
 H         2.792436         1.167036         2.432403
 H         4.662775        -1.766650         1.594534
 H         3.088713        -1.573190        -0.680974
 H         2.164616        -2.115926         0.629975
