19
Iteration:   229
 C         0.135801        -0.290355        -0.766317
 C         1.527303        -0.181117        -0.181014
 C         2.473120         0.597454        -1.125008
 C         3.550423         0.839706        -0.085945
 C         2.758325         1.005619         1.226644
 O         1.381303         0.766536         1.031526
 C         3.575270        -0.319337         0.927309
 O         4.807928        -0.652549         1.594883
 C         2.460373        -1.299049         0.346424
 H        -0.491773        -1.020883        -0.254530
 H        -0.392940         0.749092        -0.642649
 H         0.169665        -0.476789        -1.860253
 H         2.753901         0.059540        -2.088854
 H         1.931895         1.517177        -1.448134
 H         4.534937         1.421970        -0.194456
 H         3.031970         1.519476         2.108601
 H         4.524819        -0.779249         2.510125
 H         2.739724        -1.922004        -0.491305
 H         1.948599        -1.883066         1.162385
