19
Iteration:    81
 C         0.215949        -0.325829        -0.675956
 C         1.563395        -0.133878        -0.082394
 C         2.468762         0.624421        -1.112277
 C         3.498002         0.924138        -0.029455
 C         2.779822         0.955253         1.227907
 O         1.430687         0.766630         0.922169
 C         3.512057        -0.335793         0.897558
 O         4.689578        -0.666342         1.484512
 C         2.491324        -1.322014         0.394056
 H        -0.464838        -0.997506        -0.103400
 H        -0.324253         0.676763        -0.815963
 H         0.430940        -0.619769        -1.736752
 H         2.851731         0.033777        -1.915673
 H         1.899217         1.515550        -1.580286
 H         4.475233         1.595160        -0.036293
 H         3.016267         1.458811         2.158004
 H         4.512769        -0.823618         2.419433
 H         2.845441        -1.845551        -0.558468
 H         2.022748        -1.988636         1.153263
