19
Iteration:   954
 C         0.155670        -0.377283        -0.739222
 C         1.538973        -0.143249        -0.155278
 C         2.587523         0.694813        -1.104845
 C         3.590502         0.892816        -0.002893
 C         2.763175         0.952721         1.241638
 O         1.386251         0.746461         1.057356
 C         3.406385        -0.311159         0.994819
 O         4.752170        -0.645257         1.407453
 C         2.425862        -1.344324         0.355898
 H        -0.581110        -0.849511        -0.121693
 H        -0.223318         0.653904        -1.065044
 H         0.255717        -0.970830        -1.757699
 H         2.781218         0.112094        -1.905423
 H         2.039264         1.673911        -1.406754
 H         4.492069         1.306913        -0.246374
 H         3.200401         1.557001         2.050085
 H         5.038581        -0.461306         2.363095
 H         2.845438        -1.810304        -0.546852
 H         1.858281        -1.959703         1.047262
