19
Iteration:  4421charge 0 multiplicity 1
 C         0.226957        -0.416066        -0.948343
 C         1.508715        -0.123368        -0.212072
 C         2.422511         0.826999        -1.008215
 C         3.538956         1.016568         0.037504
 C         2.761332         0.928694         1.376533
 O         1.369743         0.672968         1.068480
 C         3.635785        -0.243294         0.873734
 O         4.676468        -0.823102         1.578984
 C         2.512594        -1.261263         0.228182
 H         0.431362        -0.291562        -2.021920
 H        -0.032298        -1.508705        -0.739897
 H        -0.541151         0.246275        -0.515962
 H         2.825351         0.260899        -1.891799
 H         1.964986         1.752378        -1.567804
 H         4.369140         1.735047        -0.170982
 H         3.031644         1.463181         2.314793
 H         4.434915        -0.830001         2.494006
 H         2.829390        -1.985291        -0.570505
 H         2.203443        -1.937171         1.074440
