19
Iteration:   824
 C         0.184418        -0.319612        -0.733288
 C         1.556266        -0.116120        -0.190882
 C         2.551518         0.714438        -1.095322
 C         3.534528         0.929358        -0.088460
 C         2.740306         0.933617         1.225931
 O         1.374841         0.637087         1.053761
 C         3.538218        -0.288344         0.904634
 O         4.745094        -0.736566         1.438848
 C         2.459150        -1.255342         0.451883
 H        -0.538589        -0.351845         0.010145
 H        -0.110568         0.468928        -1.426945
 H        -0.000890        -1.236289        -1.305697
 H         2.758355         0.292284        -2.022049
 H         2.102339         1.782306        -1.365745
 H         4.600055         1.383883        -0.014610
 H         2.783174         1.723591         1.952455
 H         4.632445        -0.637917         2.402266
 H         2.718804        -2.083179        -0.198240
 H         1.907170        -1.688420         1.315484
