19
Iteration:  1542charge 0 multiplicity 1
 C         0.055575        -0.493032        -0.763758
 C         1.536200        -0.155476        -0.158223
 C         2.490387         0.718212        -1.017574
 C         3.519482         0.872702         0.000623
 C         2.766755         1.082424         1.313469
 O         1.373813         0.825765         0.881550
 C         3.610442        -0.254814         1.015311
 O         4.831890        -0.830186         1.437548
 C         2.460573        -1.180618         0.417827
 H        -0.271398        -1.546193        -0.634376
 H        -0.638942         0.383567        -0.524146
 H         0.146324        -0.434217        -1.786862
 H         2.939993         0.261991        -2.038342
 H         1.979915         1.655135        -1.191055
 H         4.450915         1.541898        -0.284592
 H         2.885244         1.715358         2.190857
 H         4.697927        -1.714091         1.691440
 H         2.905951        -1.783779        -0.396956
 H         1.884343        -1.832739         1.105108
