19
Iteration:  4383
 C         0.285017        -0.549301        -0.850878
 C         1.583276        -0.059240        -0.245309
 C         2.517352         0.900340        -1.006093
 C         3.484909         1.043315         0.163837
 C         2.719950         0.971918         1.478629
 O         1.365934         0.724211         0.924277
 C         3.468525        -0.284293         0.930643
 O         4.716851        -0.935415         1.396565
 C         2.442535        -1.244752         0.275911
 H         0.408560        -1.224238        -1.692544
 H        -0.246864        -1.095359        -0.135894
 H        -0.343648         0.235831        -1.280457
 H         3.051226         0.349810        -1.794452
 H         2.123074         1.790350        -1.366149
 H         4.393221         1.686015         0.145236
 H         2.584754         1.494527         2.392562
 H         5.257507        -0.223651         1.874827
 H         2.999228        -1.896961        -0.393379
 H         1.963736        -1.834311         1.079745
