19
Iteration:  1304charge 0 multiplicity 1
 C         0.139853        -0.566827        -0.689680
 C         1.561931        -0.117052        -0.258897
 C         2.452071         0.863312        -1.107270
 C         3.623396         0.911632        -0.137716
 C         2.762381         0.963626         1.270387
 O         1.380482         0.807045         0.955305
 C         3.564000        -0.242788         0.926554
 O         4.721820        -0.976437         1.594408
 C         2.464076        -1.177900         0.405268
 H        -0.037012        -1.513097        -0.097854
 H        -0.608033         0.266347        -0.337480
 H         0.042859        -0.664558        -1.719162
 H         2.666098         0.569691        -2.080723
 H         2.059523         1.970103        -1.102904
 H         4.247472         1.706484        -0.313071
 H         3.022754         1.641614         2.116338
 H         5.213630        -0.219313         1.902094
 H         2.730726        -1.901087        -0.356735
 H         1.754824        -1.522137         1.214797
