19
Iteration:  4242charge 0 multiplicity 1
 C         0.324002        -0.566590        -0.914985
 C         1.525977        -0.109646        -0.179428
 C         2.558032         0.936150        -0.920042
 C         3.503788         1.076558         0.290679
 C         2.653726         0.908597         1.513810
 O         1.251474         0.675208         1.018428
 C         3.559886        -0.285004         0.818075
 O         4.743083        -0.834615         1.295125
 C         2.538863        -1.210017         0.139784
 H        -0.523811        -0.414821        -0.294909
 H         0.169006         0.034496        -1.756717
 H         0.479144        -1.648326        -1.097457
 H         3.094866         0.598634        -1.819367
 H         1.961725         1.907971        -1.163487
 H         4.349944         1.906416         0.280463
 H         2.617114         1.320856         2.546552
 H         4.635510        -1.356310         2.129261
 H         2.758276        -1.743068        -0.791319
 H         2.110637        -1.813118         0.898436
