19
Iteration:  2168
 C         0.167722        -0.389574        -0.723514
 C         1.592296        -0.122611        -0.233575
 C         2.504981         0.850636        -1.038981
 C         3.518843         1.067596         0.076081
 C         2.712032         0.753093         1.364696
 O         1.355537         0.580464         0.986405
 C         3.632435        -0.296210         0.754297
 O         4.676491        -0.654925         1.596706
 C         2.551634        -1.219195         0.199804
 H         0.116044        -1.114249        -1.465813
 H        -0.427154        -0.718469         0.159823
 H        -0.301024         0.538877        -1.173796
 H         2.941806         0.159871        -1.862066
 H         2.093569         1.792454        -1.362985
 H         4.286822         1.936297         0.057201
 H         2.857557         1.235956         2.318428
 H         4.305941        -1.534004         1.832161
 H         2.907206        -1.788818        -0.645520
 H         2.090141        -1.796724         0.954945
