19
Iteration:  2561
 C         0.149935        -0.319864        -0.912402
 C         1.575111        -0.160851        -0.301024
 C         2.498859         0.870753        -1.019959
 C         3.529354         0.975614         0.066255
 C         2.667039         0.830526         1.390629
 O         1.329670         0.547299         1.026929
 C         3.570445        -0.291041         0.953597
 O         4.736025        -0.716635         1.568545
 C         2.566672        -1.272575         0.239544
 H        -0.322521         0.622494        -0.926152
 H         0.271554        -0.720270        -1.955546
 H        -0.437112        -0.990484        -0.290947
 H         3.017179         0.403355        -1.968206
 H         2.046933         1.794655        -1.327323
 H         4.365317         1.593932        -0.080563
 H         2.848296         1.421707         2.286974
 H         4.923083        -0.001237         2.190880
 H         3.090692        -1.811684        -0.570737
 H         1.993145        -1.962157         1.045279
