19
Iteration:  3008
 C         0.308836        -0.506849        -0.880628
 C         1.547168        -0.031410        -0.277806
 C         2.430007         0.925516        -0.987421
 C         3.545361         0.980906         0.111193
 C         2.699549         0.948137         1.359601
 O         1.291214         0.671938         1.025220
 C         3.560843        -0.327887         0.994362
 O         4.755837        -0.859320         1.479567
 C         2.529232        -1.193698         0.212776
 H         0.007857         0.228375        -1.715474
 H         0.350709        -1.490198        -1.440427
 H        -0.539264        -0.743098        -0.334228
 H         2.690405         0.435871        -1.964802
 H         2.009387         1.907196        -1.208496
 H         4.355092         1.537654        -0.008971
 H         2.744282         1.565960         2.286317
 H         4.700835        -1.141008         2.451214
 H         3.076890        -1.794531        -0.543385
 H         1.938679        -1.801678         0.945868
