19
Iteration:  4561charge 0 multiplicity 1
 C         0.202171        -0.444939        -0.830372
 C         1.528327        -0.068256        -0.156387
 C         2.557122         0.814530        -1.056367
 C         3.605061         0.983583         0.082434
 C         2.688735         0.817979         1.402875
 O         1.361790         0.714296         0.954218
 C         3.508864        -0.312575         0.872968
 O         4.711667        -0.724995         1.520824
 C         2.496097        -1.235094         0.236700
 H         0.254897        -0.233927        -1.890827
 H        -0.170620        -1.506520        -0.754093
 H        -0.585556         0.136454        -0.342739
 H         2.831538         0.323823        -1.931199
 H         2.195324         1.813104        -1.500975
 H         4.527528         1.618805         0.001689
 H         2.786082         1.210710         2.404259
 H         4.581471        -0.827679         2.493811
 H         2.907583        -1.782220        -0.672437
 H         1.999990        -1.998793         0.896648
