19
Iteration:  3805
 C         0.275450        -0.386470        -0.999160
 C         1.500628        -0.093504        -0.184167
 C         2.465646         0.862161        -0.957615
 C         3.448761         1.057678         0.156094
 C         2.711947         0.810236         1.496966
 O         1.307771         0.618410         1.002737
 C         3.584609        -0.255994         0.909482
 O         4.746804        -0.801825         1.363124
 C         2.565448        -1.245854         0.237066
 H        -0.292489         0.562207        -0.954180
 H         0.706129        -0.697611        -1.971484
 H        -0.348564        -1.196766        -0.511985
 H         2.930863         0.380269        -1.798416
 H         1.803086         1.838866        -1.227477
 H         4.300999         1.705597         0.278443
 H         2.871006         1.366323         2.455874
 H         4.736218        -0.958842         2.374403
 H         3.084038        -1.833781        -0.555893
 H         2.240484        -1.971042         1.075096
