19
Iteration:  3369
 C         0.217153        -0.368611        -0.936326
 C         1.557465        -0.133982        -0.319299
 C         2.479400         0.888318        -1.006566
 C         3.542499         1.000870         0.061037
 C         2.667435         0.888745         1.405005
 O         1.325744         0.581195         1.074364
 C         3.611723        -0.325308         0.907546
 O         4.683521        -0.739438         1.661358
 C         2.533797        -1.252969         0.190432
 H        -0.266220         0.695042        -0.836214
 H         0.369621        -0.640983        -1.900194
 H        -0.291249        -1.099434        -0.267422
 H         2.782169         0.461792        -1.997074
 H         1.877823         1.834242        -1.265179
 H         4.339070         1.637538         0.076801
 H         2.817404         1.493482         2.316394
 H         5.450623        -1.112378         1.124528
 H         2.951642        -1.897402        -0.556738
 H         2.041080        -1.966244         0.850641
