19
Iteration:  3334charge 0 multiplicity 1
 C         0.254767        -0.467335        -0.814677
 C         1.559487        -0.104789        -0.277398
 C         2.506938         0.875205        -1.057242
 C         3.604423         1.053499         0.144600
 C         2.694781         0.829565         1.390942
 O         1.344482         0.644438         1.064660
 C         3.525959        -0.270759         0.815811
 O         4.612859        -0.729711         1.638776
 C         2.567229        -1.203570         0.109338
 H        -0.557945         0.134740        -0.329138
 H         0.098371        -0.459257        -1.921633
 H         0.089059        -1.492768        -0.535826
 H         2.915991         0.304888        -1.845643
 H         2.193197         1.929366        -1.423051
 H         4.479749         1.671281        -0.022001
 H         2.725241         1.246275         2.381258
 H         4.629209        -1.728035         1.571516
 H         2.888007        -1.714488        -0.778270
 H         2.194690        -1.820440         0.847070
