19
Iteration:   606
 C         0.230230        -0.590026        -0.586955
 C         1.547396        -0.064818        -0.222982
 C         2.479221         0.753008        -1.129734
 C         3.556563         1.008460        -0.001377
 C         2.803923         0.997129         1.291609
 O         1.406965         0.880230         0.875502
 C         3.538858        -0.273746         0.850003
 O         4.664506        -0.916478         1.554579
 C         2.482685        -1.176889         0.365094
 H        -0.443449        -0.610782         0.247227
 H        -0.231113         0.003073        -1.321620
 H         0.295910        -1.666404        -1.003354
 H         2.770567         0.239799        -1.986816
 H         1.988779         1.661334        -1.467823
 H         4.387542         1.559229        -0.189642
 H         2.980711         1.740916         2.075835
 H         4.250496        -1.469829         2.234624
 H         2.737641        -1.781146        -0.510636
 H         1.997099        -1.683362         1.175469
