19
Iteration:  3335
 C         0.250174        -0.459149        -0.819074
 C         1.555024        -0.105758        -0.276370
 C         2.507180         0.875687        -1.052044
 C         3.608117         1.063066         0.137978
 C         2.695038         0.828080         1.402387
 O         1.350631         0.641706         1.055294
 C         3.535557        -0.274795         0.810171
 O         4.604460        -0.723146         1.636835
 C         2.565968        -1.210742         0.114727
 H        -0.568727         0.165209        -0.302629
 H         0.157152        -0.481542        -1.878292
 H         0.093627        -1.501974        -0.546681
 H         2.917071         0.286252        -1.862038
 H         2.170833         1.931642        -1.433266
 H         4.436418         1.650093        -0.010668
 H         2.713679         1.221217         2.407085
 H         4.643796        -1.743422         1.574441
 H         2.891611        -1.714926        -0.771317
 H         2.194426        -1.856313         0.870854
