19
Iteration:  2049charge 0 multiplicity 1
 C         0.135999        -0.458880        -0.738988
 C         1.546647        -0.035903        -0.217337
 C         2.483215         0.857345        -1.073306
 C         3.513089         0.971490         0.029460
 C         2.728929         0.837734         1.340375
 O         1.379002         0.652140         1.046164
 C         3.593548        -0.326340         0.897528
 O         4.679413        -0.711237         1.667575
 C         2.579746        -1.247107         0.114552
 H        -0.010805        -1.458658        -0.777323
 H        -0.655350        -0.052254        -0.133512
 H        -0.042693        -0.135578        -1.773415
 H         2.735659         0.321859        -1.964232
 H         1.993345         1.876091        -1.220471
 H         4.355673         1.750337         0.060856
 H         2.995484         1.510908         2.149901
 H         5.242434        -1.284842         1.186182
 H         2.987339        -1.511651        -0.870405
 H         2.027926        -2.007957         0.635675
