19
Iteration:  1009
 C         0.190474        -0.624235        -0.692456
 C         1.573560        -0.058488        -0.179284
 C         2.494173         0.755454        -1.085563
 C         3.577601         0.957726        -0.020065
 C         2.809292         1.075905         1.288171
 O         1.436672         0.767860         1.039086
 C         3.507490        -0.224800         0.893702
 O         4.613504        -0.818338         1.513235
 C         2.465361        -1.166122         0.277566
 H        -0.458981        -0.631485         0.163367
 H        -0.214565         0.084242        -1.490575
 H         0.292590        -1.703113        -0.980224
 H         2.696239         0.218989        -1.919550
 H         2.028844         1.768762        -1.384206
 H         4.490774         1.402308        -0.269707
 H         3.206919         1.789175         2.051537
 H         4.299826        -1.737329         1.745993
 H         2.879298        -1.765741        -0.530535
 H         2.100615        -1.949725         0.922847
