19
Iteration:  3120charge 0 multiplicity 1
 C         0.209801        -0.370569        -0.943792
 C         1.571598        -0.079022        -0.265725
 C         2.555597         0.784353        -1.006006
 C         3.584408         0.972442         0.093653
 C         2.707010         0.842077         1.401434
 O         1.282460         0.552356         1.089213
 C         3.550019        -0.310416         0.859184
 O         4.780287        -0.682285         1.534993
 C         2.432248        -1.194128         0.192818
 H        -0.479394         0.577008        -0.921309
 H         0.408835        -0.495720        -1.982230
 H        -0.122049        -1.310677        -0.421807
 H         2.837533         0.105198        -1.926894
 H         2.105619         1.686472        -1.263298
 H         4.316751         1.838999         0.273771
 H         2.842150         1.465045         2.288974
 H         4.614665        -0.745551         2.493915
 H         2.786804        -1.836041        -0.583095
 H         1.897700        -1.705013         1.003291
