19
Iteration:  1031charge 0 multiplicity 1
 C         0.170494        -0.577832        -0.618505
 C         1.535385        -0.043489        -0.162587
 C         2.461642         0.767363        -1.118137
 C         3.597453         0.921725        -0.034123
 C         2.787855         0.940067         1.299946
 O         1.430373         0.869244         0.936389
 C         3.479554        -0.326459         0.894556
 O         4.663728        -0.747641         1.587440
 C         2.501414        -1.190258         0.246122
 H        -0.381919        -0.777026         0.298643
 H        -0.333382         0.217675        -1.260084
 H         0.323687        -1.592366        -1.069016
 H         2.814439         0.277111        -1.943614
 H         1.920082         1.735642        -1.443338
 H         4.511380         1.460642        -0.206672
 H         2.935751         1.507848         2.263697
 H         4.671270        -1.702477         1.559122
 H         3.076949        -1.674702        -0.537367
 H         2.088837        -2.034740         0.799554
