19
Iteration:  2913charge 0 multiplicity 1
 C         0.338315        -0.538953        -0.826950
 C         1.603305        -0.073308        -0.207032
 C         2.504076         0.885359        -0.983960
 C         3.578167         1.084240         0.107876
 C         2.703850         0.865247         1.396423
 O         1.334171         0.696376         0.981461
 C         3.532945        -0.296644         0.759484
 O         4.631452        -0.818957         1.505614
 C         2.477292        -1.223696         0.273853
 H        -0.206207         0.273076        -1.459392
 H         0.507232        -1.267298        -1.608172
 H        -0.377735        -1.075923        -0.155933
 H         2.922776         0.447964        -1.985357
 H         1.962984         1.766662        -1.166685
 H         4.351496         1.760246         0.031073
 H         3.011481         1.377732         2.332587
 H         4.273123        -1.010455         2.344776
 H         2.834802        -1.811331        -0.530624
 H         1.953825        -1.682875         1.094035
