19
Iteration:  4598charge 0 multiplicity 1
 C         0.118496        -0.367556        -0.710303
 C         1.552641        -0.135021        -0.274178
 C         2.546104         0.865027        -1.143393
 C         3.546449         1.106858         0.038244
 C         2.699368         0.893365         1.352450
 O         1.413345         0.572886         0.934846
 C         3.511299        -0.262462         0.974960
 O         4.679836        -0.777347         1.631225
 C         2.580273        -1.260017         0.191470
 H         0.082473        -0.779895        -1.771152
 H        -0.374221        -0.976769         0.039981
 H        -0.382843         0.647599        -0.833322
 H         3.020064         0.156482        -1.908787
 H         2.116024         1.861900        -1.396525
 H         4.494873         1.624190         0.040629
 H         2.774391         1.281791         2.412268
 H         4.459940        -1.658081         1.899663
 H         3.073007        -1.705868        -0.660069
 H         2.129770        -2.017633         0.897433
