19
Iteration:  4128
 C         0.267942        -0.518584        -0.903782
 C         1.585196        -0.077002        -0.241475
 C         2.469057         1.037916        -0.932489
 C         3.489259         1.112628         0.247487
 C         2.620607         0.726844         1.533091
 O         1.310439         0.618349         1.042009
 C         3.587484        -0.285420         0.856158
 O         4.758556        -0.785929         1.337235
 C         2.534820        -1.197082         0.163920
 H        -0.066282         0.133392        -1.746857
 H         0.518314        -1.454246        -1.456568
 H        -0.460652        -0.707829        -0.169586
 H         3.112504         0.800996        -1.885859
 H         1.921605         1.938647        -1.048686
 H         4.504825         1.543927         0.088245
 H         2.570665         1.297382         2.500534
 H         4.520096        -1.627153         1.726175
 H         3.072401        -1.644526        -0.690626
 H         2.087049        -1.945010         0.869646
