19
Iteration:  1926
 C         0.093480        -0.513101        -0.816547
 C         1.493052        -0.087414        -0.260142
 C         2.436322         0.956261        -0.992806
 C         3.512097         1.001151         0.051027
 C         2.798449         0.856013         1.351953
 O         1.420372         0.656629         1.060367
 C         3.531933        -0.277622         0.840865
 O         4.686856        -0.788750         1.620378
 C         2.627141        -1.234631         0.205495
 H        -0.634662        -0.373509        -0.077480
 H        -0.238116         0.060370        -1.616295
 H         0.183330        -1.533914        -1.178474
 H         2.879860         0.653013        -1.991273
 H         1.916478         1.864271        -0.974685
 H         4.433912         1.580260        -0.024706
 H         2.992946         1.537394         2.152663
 H         5.320130        -1.111402         0.931659
 H         2.951518        -1.837505        -0.610446
 H         2.105720        -1.890810         0.877609
