19
Iteration:  1252charge 0 multiplicity 1
 C         0.166490        -0.402266        -0.774894
 C         1.507694        -0.105724        -0.097284
 C         2.523914         0.625225        -1.143206
 C         3.551943         0.927633        -0.014856
 C         2.761848         0.957978         1.306440
 O         1.357631         0.753029         1.081967
 C         3.506597        -0.285391         0.906059
 O         4.736226        -0.737741         1.557672
 C         2.484998        -1.202834         0.312120
 H        -0.582542        -0.698035         0.019883
 H        -0.246228         0.456618        -1.261523
 H         0.339858        -1.156767        -1.487288
 H         2.820632         0.029158        -1.960102
 H         2.081254         1.610326        -1.604170
 H         4.448845         1.437716        -0.026337
 H         2.995869         1.760678         2.022863
 H         5.242730        -1.003078         0.770121
 H         2.878262        -1.624269        -0.599618
 H         2.013514        -1.987237         0.902415
