19
Iteration:  1743
 C         0.081114        -0.452802        -0.728123
 C         1.487775        -0.057132        -0.133763
 C         2.590496         0.807406        -1.140392
 C         3.535921         0.931527        -0.025779
 C         2.766341         0.879029         1.339981
 O         1.357603         0.682555         1.061158
 C         3.582633        -0.358342         0.836470
 O         4.755706        -0.729143         1.561995
 C         2.489809        -1.194885         0.193697
 H        -0.399879        -1.028044         0.022629
 H        -0.470079         0.453799        -0.694252
 H         0.225701        -0.938960        -1.780045
 H         2.757283         0.030375        -1.793687
 H         2.282042         1.731299        -1.785055
 H         4.484078         1.607182         0.046779
 H         3.082882         1.465834         2.215140
 H         4.507422        -0.339123         2.465123
 H         2.868891        -1.742437        -0.715849
 H         1.980402        -1.911417         0.871855
