19
Iteration:   489
 C         0.066523        -0.511472        -0.733831
 C         1.505966        -0.089830        -0.219311
 C         2.531620         0.672706        -1.128402
 C         3.618242         0.850654        -0.034161
 C         2.831917         0.941470         1.312496
 O         1.472542         0.870684         0.990818
 C         3.533194        -0.321016         0.856393
 O         4.712614        -0.647336         1.552523
 C         2.362244        -1.255954         0.373088
 H        -0.237763        -1.484409        -0.393019
 H        -0.614322         0.292474        -0.247256
 H         0.128452        -0.580353        -1.830742
 H         2.922133        -0.042304        -2.021608
 H         2.258749         1.606302        -1.559280
 H         4.494489         1.366805        -0.210661
 H         3.173055         1.684684         2.084264
 H         4.482946        -1.008717         2.397095
 H         2.755972        -1.921457        -0.370689
 H         1.820081        -1.672917         1.268315
