19
Iteration:  2242
 C         0.269463        -0.551740        -0.942582
 C         1.544879        -0.051570        -0.222138
 C         2.524000         0.877576        -1.002957
 C         3.494261         1.051981         0.112218
 C         2.747658         0.909798         1.374341
 O         1.374320         0.610019         1.040291
 C         3.574702        -0.262829         0.881945
 O         4.698898        -0.744139         1.492869
 C         2.422577        -1.178937         0.349854
 H         0.111132        -0.176437        -2.001055
 H         0.098392        -1.672992        -0.908030
 H        -0.669704        -0.157149        -0.304774
 H         3.007958         0.323034        -1.887043
 H         2.019616         1.824942        -1.411968
 H         4.469059         1.676289         0.057606
 H         2.893552         1.414649         2.323616
 H         4.877235        -1.686472         1.100842
 H         2.665289        -1.955464        -0.375172
 H         1.964805        -1.726124         1.201523
