19
Iteration:  4134
 C         0.240307        -0.489794        -0.866306
 C         1.570272        -0.110901        -0.257968
 C         2.554689         1.040984        -0.960442
 C         3.502295         1.114527         0.206321
 C         2.624579         0.748380         1.515907
 O         1.282658         0.570905         1.025667
 C         3.537589        -0.299179         0.898764
 O         4.756035        -0.768951         1.352088
 C         2.588411        -1.188304         0.137663
 H        -0.231797         0.239066        -1.563670
 H         0.456938        -1.430024        -1.417111
 H        -0.648783        -0.705031        -0.163925
 H         2.899078         0.820372        -1.918006
 H         1.981205         2.048769        -0.897397
 H         4.452143         1.734511         0.332099
 H         2.787904         1.210084         2.458465
 H         4.581748        -1.686292         1.766492
 H         3.121214        -1.735642        -0.673588
 H         2.101900        -1.872199         0.870238
