19
Iteration:   537
 C         0.097718        -0.272213        -0.823507
 C         1.502542        -0.210888        -0.148031
 C         2.513493         0.533113        -1.136242
 C         3.506512         0.969976        -0.045235
 C         2.821297         0.919572         1.240046
 O         1.417168         0.784700         1.031584
 C         3.593225        -0.285560         0.879452
 O         4.692464        -0.676381         1.533588
 C         2.492156        -1.308694         0.444947
 H        -0.683639        -0.772905        -0.187359
 H        -0.155574         0.810522        -0.775895
 H         0.080502        -0.690687        -1.824140
 H         3.078314        -0.000656        -1.847082
 H         1.935663         1.380168        -1.667967
 H         4.461768         1.628425        -0.290910
 H         3.065513         1.583426         2.067449
 H         4.633741        -0.785829         2.528046
 H         2.896108        -1.938501        -0.394461
 H         2.149839        -1.847992         1.339064
