19
Iteration:  4411charge 0 multiplicity 1
 C         0.307818        -0.484159        -0.957090
 C         1.570604        -0.094251        -0.182205
 C         2.525329         0.800696        -1.014695
 C         3.560693         0.985070         0.007567
 C         2.785837         0.932368         1.390756
 O         1.254643         0.677688         1.113352
 C         3.532431        -0.237216         0.864403
 O         4.684564        -0.877499         1.477786
 C         2.465407        -1.191683         0.269175
 H         0.275023        -0.482061        -2.064084
 H        -0.200158        -1.438085        -0.555940
 H        -0.497050         0.297268        -0.675237
 H         2.880851         0.155199        -1.904462
 H         2.058043         1.842389        -1.187037
 H         4.277243         1.870466         0.003181
 H         2.869005         1.579119         2.286204
 H         4.626598        -0.534156         2.384808
 H         3.127685        -1.610106        -0.510517
 H         2.114649        -1.778547         1.157070
