19
Iteration:  2996
 C         0.204264        -0.451038        -0.938223
 C         1.570341        -0.076394        -0.243390
 C         2.527249         0.895168        -1.024797
 C         3.498793         1.017655         0.104623
 C         2.678625         0.870235         1.376136
 O         1.368270         0.568994         1.029054
 C         3.540640        -0.302599         0.919169
 O         4.804470        -0.786570         1.519943
 C         2.455844        -1.158079         0.254067
 H        -0.048131         0.287948        -1.718972
 H         0.376911        -1.500871        -1.348712
 H        -0.466064        -0.316388        -0.179909
 H         2.953675         0.456393        -1.890682
 H         1.944982         1.804965        -1.282706
 H         4.271142         1.682218         0.135384
 H         2.928255         1.536668         2.244440
 H         4.526041        -1.092104         2.422176
 H         2.773089        -1.893157        -0.557711
 H         1.810584        -1.784626         0.949334
