19
Iteration:  2538
 C         0.221858        -0.383543        -0.919765
 C         1.490459        -0.096345        -0.260751
 C         2.536101         0.818251        -0.990780
 C         3.535398         1.077101         0.155396
 C         2.663461         0.784461         1.381243
 O         1.294788         0.580153         1.042092
 C         3.616993        -0.290731         0.815711
 O         4.753791        -0.751569         1.523437
 C         2.523764        -1.244481         0.246867
 H         0.001968         0.487521        -1.430302
 H         0.406280        -1.185442        -1.716598
 H        -0.659873        -0.555365        -0.245051
 H         2.896811         0.221836        -1.937355
 H         1.996400         1.708413        -1.396516
 H         4.310689         1.912594         0.090804
 H         2.980092         1.258917         2.313165
 H         4.753366        -0.168288         2.365314
 H         2.900575        -1.914399        -0.576543
 H         2.117070        -1.765561         1.277637
