19
Iteration:   559
 C         0.212306        -0.464892        -0.716622
 C         1.517142        -0.000480        -0.169280
 C         2.530849         0.677730        -1.117195
 C         3.564837         0.866873        -0.053246
 C         2.793136         0.952992         1.277956
 O         1.410669         0.763438         1.008820
 C         3.547897        -0.271632         0.870727
 O         4.732557        -0.729740         1.533052
 C         2.364944        -1.224275         0.353584
 H        -0.461385        -0.780583         0.137767
 H        -0.364423         0.269149        -1.311526
 H         0.361194        -1.339931        -1.343082
 H         2.769667        -0.110785        -1.804566
 H         2.095346         1.560766        -1.717367
 H         4.568182         1.467602        -0.260488
 H         2.917282         1.680302         2.078494
 H         4.581798        -0.910345         2.452518
 H         2.668679        -1.921809        -0.477866
 H         1.742975        -1.640004         1.151652
