19
Iteration:  3987
 C         0.325371        -0.488661        -0.966468
 C         1.543813        -0.155911        -0.218647
 C         2.481627         0.961551        -0.872182
 C         3.523330         1.129205         0.107908
 C         2.678495         0.776423         1.465091
 O         1.350511         0.663450         1.012389
 C         3.587262        -0.240659         0.882907
 O         4.706475        -0.860853         1.396979
 C         2.509418        -1.182532         0.241874
 H        -0.605363        -0.116307        -0.472445
 H         0.127278        -0.277301        -2.029602
 H         0.215368        -1.525827        -0.779630
 H         2.729767         0.654279        -2.002142
 H         1.837413         1.788655        -0.955852
 H         4.288360         2.006705         0.035352
 H         2.830703         1.238778         2.385112
 H         4.440210        -1.352932         2.145364
 H         2.926782        -1.758383        -0.578330
 H         2.049186        -1.850073         0.942626
