19
Iteration:  2623
 C         0.267292        -0.682072        -0.840289
 C         1.578208        -0.047210        -0.308124
 C         2.527179         0.949699        -1.063674
 C         3.556546         1.133928         0.113127
 C         2.727818         0.949831         1.348159
 O         1.413846         0.666158         1.025896
 C         3.528134        -0.268149         0.911741
 O         4.613034        -0.976934         1.538758
 C         2.433943        -1.133435         0.257214
 H        -0.663446        -0.256860        -0.427646
 H         0.311046        -0.430213        -1.969305
 H         0.207275        -1.760036        -0.384279
 H         3.017842         0.520515        -1.873337
 H         1.885091         1.827197        -1.466825
 H         4.352605         1.922141        -0.070319
 H         2.883042         1.620606         2.177727
 H         4.898619        -0.557411         2.374886
 H         2.812854        -1.818365        -0.517331
 H         1.972468        -1.689818         1.031249
