19
Iteration:  4613charge 0 multiplicity 1
 C         0.189811        -0.409556        -0.810669
 C         1.575580        -0.083632        -0.216987
 C         2.473640         0.814832        -1.015312
 C         3.546771         0.997070         0.091177
 C         2.715100         0.849679         1.355483
 O         1.360315         0.682582         0.982736
 C         3.599985        -0.301613         0.827983
 O         4.643618        -0.774897         1.622493
 C         2.586503        -1.191559         0.198204
 H         0.253387        -1.245137        -1.518490
 H        -0.432498        -0.773515         0.036005
 H        -0.250199         0.433339        -1.312559
 H         2.875545         0.492447        -2.031905
 H         1.885029         1.687739        -1.241848
 H         4.345536         1.829093         0.029685
 H         2.921213         1.596121         2.120113
 H         4.467498        -1.749963         1.771056
 H         3.022369        -1.757980        -0.631911
 H         2.140254        -1.892717         0.870931
