19
Iteration:  3238charge 0 multiplicity 1
 C         0.215817        -0.349844        -0.969350
 C         1.513051        -0.117899        -0.217592
 C         2.524032         0.845311        -0.958185
 C         3.518805         0.931307         0.098544
 C         2.677826         0.799211         1.384577
 O         1.319223         0.619821         1.037215
 C         3.514376        -0.268268         0.921937
 O         4.768935        -0.701224         1.511416
 C         2.579695        -1.303341         0.200353
 H        -0.069294         0.744243        -1.277168
 H         0.267522        -0.919000        -1.838646
 H        -0.541034        -0.727671        -0.278302
 H         2.920239         0.495802        -1.949059
 H         1.866232         1.765490        -0.999654
 H         4.282878         1.727394         0.147468
 H         2.915936         1.482631         2.226138
 H         4.822260        -0.699465         2.538851
 H         2.999486        -1.588999        -0.787956
 H         2.140366        -2.180921         0.845474
