19
Iteration:   678
 C         0.133664        -0.313625        -0.789621
 C         1.481185        -0.148491        -0.150070
 C         2.501910         0.685311        -1.114237
 C         3.598848         0.836654        -0.028439
 C         2.778144         0.928356         1.266322
 O         1.356310         0.748539         0.938952
 C         3.554992        -0.325888         0.891959
 O         4.867630        -0.634824         1.520156
 C         2.392894        -1.335695         0.461056
 H        -0.466670        -1.226289        -0.459129
 H        -0.519798         0.499991        -0.472251
 H         0.157642        -0.355016        -1.870431
 H         2.935165         0.245595        -2.062297
 H         2.046203         1.700208        -1.392025
 H         4.608380         1.247086        -0.063192
 H         2.901929         1.729091         1.992426
 H         4.596200        -0.514611         2.463497
 H         2.620692        -2.135987        -0.295585
 H         1.784566        -1.687119         1.293377
