19
Iteration:  3938charge 0 multiplicity 1
 C         0.237869        -0.421113        -0.890494
 C         1.531386        -0.126210        -0.204618
 C         2.577677         0.881685        -0.983934
 C         3.490756         1.012236         0.251082
 C         2.671661         0.802732         1.496462
 O         1.292673         0.621842         1.016579
 C         3.553473        -0.345399         0.894528
 O         4.794386        -0.690884         1.347689
 C         2.492092        -1.172177         0.182314
 H        -0.465469         0.379395        -1.035306
 H         0.399239        -0.462198        -1.960377
 H        -0.338392        -1.374013        -0.649902
 H         2.892367         0.380945        -1.880573
 H         1.906170         1.766682        -1.344029
 H         4.331974         1.677930         0.331795
 H         2.893961         1.335855         2.445595
 H         4.809980        -1.270454         2.186526
 H         2.959030        -1.615490        -0.746241
 H         2.098374        -2.050690         0.809341
