19
Iteration:  4527charge 0 multiplicity 1
 C         0.333754        -0.542502        -1.017713
 C         1.527694        -0.088322        -0.164640
 C         2.499830         0.913691        -1.012508
 C         3.604924         0.927114        -0.035692
 C         2.726448         0.937725         1.358289
 O         1.383288         0.703942         1.118344
 C         3.568675        -0.268213         0.928383
 O         4.673114        -0.863116         1.450746
 C         2.388290        -1.199277         0.374950
 H         0.452518        -0.065295        -1.992119
 H         0.139019        -1.635559        -1.154768
 H        -0.611865        -0.126168        -0.754271
 H         2.518401         0.484716        -1.928343
 H         1.833657         1.776799        -0.940611
 H         4.373541         1.805999         0.060649
 H         2.705707         1.713857         2.159234
 H         4.811022        -0.755626         2.381207
 H         2.834320        -1.920569        -0.370315
 H         1.789090        -1.656986         1.189853
