19
Iteration:  2225
 C         0.282874        -0.555000        -0.856130
 C         1.577176        -0.129892        -0.169974
 C         2.475265         0.880457        -0.972585
 C         3.550908         1.053617         0.076099
 C         2.695793         0.924220         1.342389
 O         1.293949         0.790997         1.033488
 C         3.551618        -0.313900         0.817864
 O         4.678436        -0.884294         1.576241
 C         2.514307        -1.206081         0.259843
 H         0.414218        -0.408439        -1.902642
 H         0.249691        -1.651932        -0.823774
 H        -0.639019        -0.204909        -0.553642
 H         2.778917         0.575174        -1.961681
 H         1.908535         1.855566        -1.209642
 H         4.311524         1.729745         0.046859
 H         2.892146         1.502111         2.271373
 H         5.429183        -0.793816         0.862047
 H         2.790524        -1.902544        -0.574998
 H         2.063255        -1.806145         1.059868
