19
Iteration:  4704charge 0 multiplicity 1
 C         0.177516        -0.315549        -0.845103
 C         1.571844        -0.166729        -0.314918
 C         2.503678         0.765607        -1.056142
 C         3.520600         1.039493         0.068351
 C         2.701671         0.799473         1.429484
 O         1.325629         0.619291         1.087311
 C         3.536642        -0.271740         0.968967
 O         4.701556        -0.795227         1.488019
 C         2.592754        -1.166359         0.171035
 H        -0.374533        -1.235492        -0.595894
 H        -0.420775         0.515012        -0.425507
 H         0.119615        -0.186321        -1.973474
 H         3.019444         0.416979        -1.901420
 H         2.027205         1.729545        -1.537900
 H         4.410884         1.625192         0.062086
 H         2.932545         1.192274         2.465606
 H         4.915130        -0.565671         2.380385
 H         3.199441        -1.723830        -0.588234
 H         2.015376        -1.927861         0.777785
