19
Iteration:  3114charge 0 multiplicity 1
 C         0.217120        -0.333559        -0.937921
 C         1.570435        -0.097418        -0.206270
 C         2.551975         0.773131        -1.041155
 C         3.534738         0.948985         0.113622
 C         2.722389         0.788779         1.390140
 O         1.298994         0.598328         1.068679
 C         3.537817        -0.284998         0.885018
 O         4.762273        -0.650741         1.539109
 C         2.487381        -1.233690         0.175519
 H        -0.398499         0.458581        -0.748942
 H         0.424619        -0.349193        -2.064246
 H        -0.294993        -1.241797        -0.550158
 H         2.836465         0.152640        -1.835499
 H         1.946074         1.713952        -1.427116
 H         4.211904         1.688454         0.225268
 H         2.967686         1.397178         2.280625
 H         4.624696        -0.778932         2.551789
 H         2.862735        -1.864680        -0.680980
 H         1.918276        -1.831829         0.906518
