19
Iteration:  3152charge 0 multiplicity 1
 C         0.314303        -0.546160        -0.868183
 C         1.595987        -0.124523        -0.281048
 C         2.479375         0.920987        -0.990060
 C         3.545163         1.071690         0.122235
 C         2.711374         0.888008         1.451961
 O         1.344666         0.744819         0.961437
 C         3.498325        -0.335617         0.949116
 O         4.656823        -0.836341         1.425780
 C         2.536473        -1.211810         0.241683
 H        -0.275202         0.353754        -1.327127
 H         0.474451        -1.308657        -1.575983
 H        -0.456853        -1.038065        -0.233212
 H         2.847088         0.699669        -2.049964
 H         1.910847         1.769353        -1.123882
 H         4.374572         1.808014         0.391903
 H         2.937071         1.470505         2.363661
 H         4.413838        -1.232732         2.259899
 H         3.059861        -1.834664        -0.490772
 H         2.057410        -1.929673         1.003629
