19
Iteration:  4113charge 0 multiplicity 1
 C         0.426792        -0.583463        -1.023392
 C         1.527942        -0.028351        -0.215074
 C         2.423736         0.975205        -0.829020
 C         3.444100         1.103281         0.269707
 C         2.710857         0.846728         1.517212
 O         1.326638         0.649068         1.080276
 C         3.503921        -0.341412         0.839838
 O         4.782103        -0.821299         1.303121
 C         2.507114        -1.149723         0.144823
 H        -0.013635         0.156976        -1.753535
 H         0.601798        -1.622184        -1.423446
 H        -0.513944        -0.651293        -0.336209
 H         2.780594         0.451576        -1.654688
 H         1.847389         1.900450        -1.223429
 H         4.279848         1.884756         0.296503
 H         2.980069         1.144004         2.495133
 H         4.595938        -1.542361         1.893372
 H         2.719941        -1.700196        -0.817681
 H         1.989606        -1.885963         0.868691
