19
Iteration:  2218
 C         0.301970        -0.558471        -0.838142
 C         1.566816        -0.098953        -0.180204
 C         2.437709         0.871827        -0.961612
 C         3.524176         0.991968         0.057857
 C         2.709758         0.900056         1.329047
 O         1.314519         0.812950         1.005112
 C         3.546136        -0.282253         0.911126
 O         4.649988        -0.902996         1.556615
 C         2.565669        -1.196876         0.212551
 H         0.371828        -0.457343        -1.998763
 H         0.180319        -1.617031        -0.644968
 H        -0.682957        -0.136806        -0.519208
 H         2.769463         0.512217        -1.945503
 H         1.817749         1.908104        -1.097404
 H         4.351643         1.775413         0.042546
 H         3.005327         1.359725         2.240936
 H         5.404305        -0.435827         1.138118
 H         2.865636        -1.829765        -0.662630
 H         2.189588        -1.924229         1.027984
