19
Iteration:  3944charge 0 multiplicity 1
 C         0.261857        -0.459840        -0.942437
 C         1.538190        -0.037963        -0.237922
 C         2.534884         0.850130        -0.959580
 C         3.527111         1.009902         0.229607
 C         2.666550         0.815973         1.496278
 O         1.273147         0.627627         1.061010
 C         3.508339        -0.304897         0.929306
 O         4.821611        -0.720760         1.313722
 C         2.485938        -1.230078         0.194950
 H        -0.540628         0.344630        -0.804247
 H         0.408438        -0.465159        -2.058527
 H        -0.224161        -1.365743        -0.626162
 H         3.039646         0.304980        -1.822879
 H         2.090977         1.765321        -1.209397
 H         4.399949         1.764380         0.250361
 H         2.748650         1.319806         2.423176
 H         4.818996        -1.154636         2.160706
 H         2.972320        -1.531089        -0.710093
 H         2.032704        -1.968857         0.806543
