19
Iteration:   741
 C         0.137287        -0.639711        -0.623314
 C         1.533815        -0.084541        -0.267747
 C         2.489871         0.800874        -1.090621
 C         3.665299         0.933416        -0.076048
 C         2.798606         1.005656         1.304665
 O         1.378045         0.911332         0.893464
 C         3.537530        -0.248528         0.935713
 O         4.681853        -0.904582         1.535077
 C         2.481884        -1.171761         0.356771
 H        -0.147498        -1.360982         0.207889
 H        -0.595044         0.279911        -0.572649
 H         0.175304        -1.072615        -1.595275
 H         2.819789         0.292761        -2.088247
 H         2.005829         1.704128        -1.205827
 H         4.513371         1.659848        -0.115575
 H         2.904807         1.770226         2.075578
 H         4.241196        -1.705646         1.964581
 H         2.942036        -1.884922        -0.318366
 H         1.993567        -1.684690         1.238298
