19
Iteration:  1409
 C         0.189100        -0.530175        -0.726522
 C         1.512822        -0.025419        -0.163138
 C         2.458300         0.713403        -1.080216
 C         3.573416         0.946733         0.026544
 C         2.805091         0.936522         1.363379
 O         1.390606         0.834195         0.978118
 C         3.526591        -0.295568         0.897629
 O         4.746078        -0.768344         1.396849
 C         2.432482        -1.202961         0.365823
 H        -0.674880        -0.592904        -0.132672
 H        -0.058964         0.134543        -1.558026
 H         0.381156        -1.540542        -1.141280
 H         2.803116         0.072628        -2.017823
 H         2.037043         1.627451        -1.416403
 H         4.437105         1.502332        -0.151582
 H         2.927071         1.605505         2.243181
 H         4.640677        -1.341174         2.136008
 H         2.837409        -1.927581        -0.362021
 H         2.050339        -1.850372         1.124555
