19
Iteration:  3250charge 0 multiplicity 1
 C         0.214435        -0.360519        -0.991715
 C         1.537398        -0.107320        -0.264084
 C         2.456953         0.825077        -0.992483
 C         3.530646         0.954883         0.126355
 C         2.711738         0.868854         1.442534
 O         1.296988         0.570694         1.075434
 C         3.571434        -0.353099         0.952438
 O         4.790519        -0.717325         1.496778
 C         2.516748        -1.155973         0.188760
 H        -0.371512         0.633399        -1.179030
 H         0.445382        -0.788431        -1.910105
 H        -0.490222        -1.048450        -0.448942
 H         2.914422         0.316234        -1.927427
 H         2.170520         1.797453        -1.325742
 H         4.406246         1.442736        -0.071130
 H         2.849008         1.426373         2.394057
 H         4.648270        -0.516051         2.415275
 H         3.064609        -1.733008        -0.584209
 H         2.028847        -2.009153         0.871972
