19
Iteration:  3634
 C         0.097288        -0.348993        -0.835634
 C         1.578939        -0.024518        -0.247238
 C         2.566210         0.820074        -1.029920
 C         3.527418         1.068530         0.137977
 C         2.703862         0.806104         1.402998
 O         1.318291         0.470720         1.020141
 C         3.523361        -0.300809         0.924213
 O         4.761823        -0.659252         1.555803
 C         2.533622        -1.206107         0.100884
 H        -0.136732         0.393732        -1.575762
 H         0.265463        -1.363135        -1.335038
 H        -0.562482        -0.357650         0.102408
 H         3.234182         0.235761        -1.793470
 H         2.160706         1.677930        -1.467104
 H         4.405699         1.555111         0.079774
 H         2.870263         1.428115         2.331859
 H         4.481015        -1.485933         1.949234
 H         3.054319        -1.624631        -0.749959
 H         2.113582        -1.969654         0.735100
