19
Iteration:  3776charge 0 multiplicity 1
 C         0.211885        -0.388902        -0.888972
 C         1.525406        -0.107239        -0.246863
 C         2.548700         0.874076        -1.005506
 C         3.513129         0.952496         0.126571
 C         2.744195         0.836200         1.437786
 O         1.336219         0.525299         1.079828
 C         3.581696        -0.254674         0.850890
 O         4.711696        -0.635976         1.580374
 C         2.472578        -1.260586         0.052131
 H        -0.367959         0.464808        -0.568691
 H         0.203874        -0.147769        -1.941731
 H        -0.136456        -1.358937        -0.419381
 H         2.936039         0.395072        -1.973477
 H         2.051923         1.751246        -1.243272
 H         4.415873         1.685686         0.183533
 H         2.935843         1.378956         2.308403
 H         4.581256        -1.375653         2.162652
 H         2.946471        -1.670208        -0.829551
 H         2.033223        -1.928138         0.777347
