19
Iteration:  2411charge 0 multiplicity 1
 C         0.171222        -0.333775        -0.937685
 C         1.513306        -0.127532        -0.298524
 C         2.436334         0.763875        -1.043172
 C         3.506549         1.027490         0.050741
 C         2.701524         0.772189         1.469045
 O         1.388675         0.649611         0.996683
 C         3.581959        -0.314527         0.876481
 O         4.716985        -0.726579         1.606781
 C         2.560218        -1.271380         0.311387
 H        -0.583915         0.497203        -0.523351
 H         0.339315        -0.286041        -2.053930
 H        -0.080583        -1.345133        -0.632392
 H         2.846652         0.385811        -1.986135
 H         1.982353         1.681525        -1.379747
 H         4.423280         1.741307         0.028801
 H         2.906614         1.350703         2.387674
 H         5.215171         0.103067         1.902106
 H         3.073476        -1.865436        -0.511437
 H         2.068247        -1.993961         0.906612
