19
Iteration:  1415
 C         0.183145        -0.547200        -0.716896
 C         1.457939        -0.015912        -0.141596
 C         2.495386         0.690448        -1.119669
 C         3.621748         1.003244         0.011587
 C         2.782288         0.897701         1.356165
 O         1.360563         0.816121         1.009904
 C         3.555536        -0.286043         0.905109
 O         4.740362        -0.793717         1.387035
 C         2.448628        -1.158298         0.360016
 H        -0.788936        -0.562232        -0.116894
 H        -0.093680        -0.009583        -1.650872
 H         0.462209        -1.545207        -1.159935
 H         2.767519         0.072250        -1.896609
 H         2.100013         1.662417        -1.617499
 H         4.614694         1.617606        -0.042228
 H         3.100699         1.522528         2.173210
 H         4.509731        -1.248470         2.264563
 H         2.684678        -1.855383        -0.470316
 H         2.032277        -1.767773         1.234749
