19
Iteration:  3911charge 0 multiplicity 1
 C         0.211435        -0.350393        -0.826689
 C         1.595532        -0.082810        -0.328377
 C         2.461660         0.936378        -0.945056
 C         3.558433         1.077943         0.126465
 C         2.703578         0.807467         1.416528
 O         1.299684         0.489207         1.063562
 C         3.596721        -0.317952         0.819306
 O         4.697084        -0.682565         1.547558
 C         2.588479        -1.277084         0.130702
 H        -0.245364         0.613267        -1.168132
 H        -0.006423        -0.954013        -1.784278
 H        -0.369030        -0.788208        -0.071105
 H         2.672790         0.532792        -1.972588
 H         1.885231         1.748673        -1.167152
 H         4.289837         1.900006        -0.021885
 H         2.956469         1.141926         2.443221
 H         4.520385        -1.520413         2.104427
 H         3.116538        -1.815833        -0.651200
 H         2.182434        -2.044889         0.727132
