19
Iteration:  1077charge 0 multiplicity 1
 C         0.159966        -0.325693        -0.761421
 C         1.562865        -0.162574        -0.215737
 C         2.456924         0.653818        -1.139277
 C         3.529280         0.930835        -0.095122
 C         2.837482         0.955875         1.321001
 O         1.434642         0.708197         1.032264
 C         3.501977        -0.262766         0.883483
 O         4.616883        -0.692596         1.606564
 C         2.524372        -1.287217         0.435980
 H        -0.323448        -1.193736        -0.181611
 H        -0.329271         0.713754        -0.608674
 H         0.149311        -0.676197        -1.738023
 H         2.786421         0.098915        -1.985075
 H         2.013902         1.607579        -1.492792
 H         4.575388         1.515221        -0.192942
 H         3.000841         1.572833         2.171099
 H         5.260002        -0.853188         0.835221
 H         2.754036        -1.906990        -0.380175
 H         1.950184        -1.910969         1.142281
