19
Iteration:  1840charge 0 multiplicity 1
 C         0.316926        -0.532277        -0.771674
 C         1.561846        -0.000521        -0.144055
 C         2.437365         0.819761        -1.015113
 C         3.491890         0.939775         0.050946
 C         2.703513         0.949183         1.360055
 O         1.332301         0.815660         0.998445
 C         3.555210        -0.315088         0.899051
 O         4.754090        -0.760131         1.387322
 C         2.464561        -1.309887         0.319574
 H        -0.280904        -1.143255        -0.077784
 H        -0.212678         0.377506        -1.057797
 H         0.617310        -1.165966        -1.729458
 H         2.764319         0.396660        -1.965104
 H         1.890667         1.765212        -1.243456
 H         4.477876         1.551311         0.155537
 H         2.976429         1.484543         2.259247
 H         4.713843        -1.755836         1.607416
 H         2.911625        -1.755353        -0.564042
 H         1.920625        -2.001326         0.985812
