19
Iteration:    28
 C         0.263217        -0.688547        -0.629660
 C         1.513093        -0.012313        -0.117804
 C         2.521903         0.761116        -1.111305
 C         3.594848         0.936137        -0.064542
 C         2.792324         1.005571         1.314883
 O         1.404306         0.990239         0.933961
 C         3.520598        -0.330841         0.883439
 O         4.649623        -0.829098         1.466421
 C         2.390321        -1.186432         0.400682
 H        -0.005029        -1.698348        -0.246447
 H        -0.616071        -0.006493        -0.678498
 H         0.511648        -0.989632        -1.689238
 H         2.915240         0.184798        -1.984270
 H         2.117127         1.765632        -1.364670
 H         4.673454         1.303350        -0.284333
 H         3.037455         1.754040         2.070793
 H         4.313796        -1.611173         1.916151
 H         2.622724        -1.907382        -0.435396
 H         1.949587        -1.928220         1.109445
