19
Iteration:  4765charge 0 multiplicity 1
 C         0.221869        -0.524197        -0.824261
 C         1.555589        -0.083539        -0.284291
 C         2.468540         1.006279        -1.023333
 C         3.470165         1.025941         0.115324
 C         2.749723         0.928625         1.422627
 O         1.384899         0.705750         1.047621
 C         3.523599        -0.301023         0.922349
 O         4.686168        -0.865043         1.484702
 C         2.571412        -1.251723         0.156527
 H        -0.420374        -0.652538         0.031342
 H        -0.168256         0.147677        -1.618791
 H         0.422849        -1.496674        -1.196037
 H         3.082002         0.471418        -1.819337
 H         2.055200         1.905701        -1.174915
 H         4.366900         1.566009         0.039923
 H         2.859508         1.594802         2.292333
 H         4.398482        -1.665551         1.943235
 H         3.033341        -1.750941        -0.687578
 H         2.040158        -1.928534         0.782017
