19
Iteration:  2099
 C         0.294904        -0.555357        -0.856971
 C         1.556361        -0.095225        -0.198554
 C         2.458839         0.901278        -0.990416
 C         3.493724         1.134688         0.114192
 C         2.737743         0.854246         1.387887
 O         1.359759         0.743698         1.029955
 C         3.539564        -0.270699         0.827077
 O         4.709570        -0.871199         1.361835
 C         2.459883        -1.239320         0.321845
 H         0.206526        -1.760899        -1.014829
 H        -0.573319        -0.292153        -0.237460
 H         0.040527        -0.190848        -1.907641
 H         3.174296         0.337416        -1.736039
 H         1.979538         1.720497        -1.428231
 H         4.328384         1.775097         0.124060
 H         3.059962         1.297861         2.364692
 H         4.791254        -0.829214         2.401752
 H         2.840381        -1.862526        -0.476476
 H         2.086706        -1.665433         1.301763
