19
Iteration:  4370
 C         0.233333        -0.572605        -0.841902
 C         1.599537        -0.120844        -0.308225
 C         2.590386         0.873686        -0.985756
 C         3.523671         1.108428         0.195898
 C         2.672199         0.847171         1.411240
 O         1.275093         0.777112         0.957174
 C         3.548743        -0.325531         0.940917
 O         4.676332        -0.905769         1.416858
 C         2.503035        -1.195720         0.303377
 H         0.328229        -1.475389        -1.421810
 H        -0.400107        -0.629898         0.045575
 H        -0.207115         0.322264        -1.403778
 H         3.113659         0.569242        -1.968501
 H         1.986892         1.673796        -1.140297
 H         4.453327         1.808315         0.059963
 H         3.007435         1.398122         2.298079
 H         5.291541        -0.188414         1.522272
 H         2.883537        -1.754891        -0.582447
 H         1.800654        -1.804314         0.947796
