19
Iteration:  1861
 C         0.092120        -0.456387        -0.788565
 C         1.555780        -0.130062        -0.238409
 C         2.543839         0.846013        -0.999317
 C         3.542323         1.013236         0.070712
 C         2.712871         0.895221         1.360129
 O         1.359617         0.643048         0.990772
 C         3.591214        -0.261232         0.880466
 O         4.785823        -0.786913         1.405105
 C         2.471252        -1.193276         0.292252
 H        -0.569783        -0.623850         0.072763
 H        -0.384817         0.347504        -1.318707
 H         0.082203        -1.387413        -1.460034
 H         2.996260         0.498049        -1.984460
 H         1.964150         1.760667        -1.103609
 H         4.533855         1.614969         0.014469
 H         2.857608         1.420364         2.298013
 H         4.725053        -1.035768         2.317183
 H         2.844345        -1.956505        -0.378098
 H         2.054019        -1.656638         1.200362
