19
Iteration:  2181charge 0 multiplicity 1
 C         0.168847        -0.470821        -0.724840
 C         1.521044        -0.058961        -0.259109
 C         2.580733         0.854504        -1.041889
 C         3.548913         1.078781         0.079651
 C         2.711582         0.887106         1.284726
 O         1.352048         0.555937         1.065411
 C         3.564624        -0.274566         0.823910
 O         4.675413        -0.747776         1.563042
 C         2.553849        -1.232711         0.135170
 H         0.163512        -0.988177        -1.628076
 H        -0.287608        -1.086199         0.075419
 H        -0.374283         0.433502        -0.786556
 H         3.025471         0.367933        -1.949881
 H         2.043189         1.850458        -1.420134
 H         4.325720         1.805026         0.062190
 H         2.975034         1.342195         2.261438
 H         4.429103        -1.087186         2.496993
 H         2.905295        -1.870242        -0.721102
 H         2.099651        -1.856375         0.908153
