19
Iteration:  2987
 C         0.207961        -0.380159        -0.925377
 C         1.545119        -0.108187        -0.284558
 C         2.565354         0.828960        -1.026900
 C         3.521634         1.075820         0.122210
 C         2.728852         0.801086         1.408437
 O         1.364386         0.567513         1.049196
 C         3.551420        -0.276781         0.832513
 O         4.745020        -0.701992         1.514323
 C         2.451651        -1.253900         0.283831
 H        -0.109240         0.336484        -1.798288
 H         0.014120        -1.454828        -1.207922
 H        -0.565408        -0.372402        -0.190256
 H         3.111454         0.492731        -1.997429
 H         2.150265         1.789620        -1.301738
 H         4.299308         1.680936         0.245552
 H         2.761477         1.407776         2.336202
 H         4.457416        -1.083592         2.375840
 H         2.779503        -1.808560        -0.571153
 H         2.030132        -1.837918         1.097333
