19
Iteration:    48charge 0 multiplicity 1
 C         0.021516        -0.676039        -0.775471
 C         1.504737        -0.063931        -0.241378
 C         2.527412         0.727373        -1.108020
 C         3.640600         0.948631        -0.019633
 C         2.857565         1.090629         1.216289
 O         1.451586         0.811684         1.019815
 C         3.572906        -0.217488         0.980467
 O         4.702005        -0.877280         1.488021
 C         2.422140        -1.075264         0.410912
 H        -0.150544        -1.594068        -0.211496
 H        -0.853477         0.078465        -0.558317
 H         0.031392        -1.096126        -1.786373
 H         2.873342         0.130317        -1.875137
 H         2.064275         1.741559        -1.470259
 H         4.486266         1.707103        -0.130719
 H         3.123711         1.692247         2.133516
 H         4.308903        -1.631843         2.041719
 H         2.817505        -1.988352        -0.125256
 H         1.825568        -1.543379         1.222674
