19
Iteration:   456charge 0 multiplicity 1
 C         0.282211        -0.653709        -0.613040
 C         1.543415        -0.045969        -0.177037
 C         2.505640         0.748975        -1.168164
 C         3.575147         0.908636        -0.048060
 C         2.792616         1.038532         1.252215
 O         1.394626         0.960236         0.973518
 C         3.551389        -0.261313         0.868932
 O         4.599897        -0.933410         1.500847
 C         2.429742        -1.177424         0.409711
 H        -0.047935        -1.484372        -0.005280
 H        -0.525128         0.156244        -0.653964
 H         0.310642        -0.894727        -1.705366
 H         2.888789         0.107645        -2.096685
 H         2.178526         1.709094        -1.513218
 H         4.419793         1.587107        -0.196544
 H         3.053346         1.934206         1.885010
 H         4.382295        -1.250092         2.417094
 H         2.851916        -1.907743        -0.286987
 H         1.951417        -1.829068         1.196058
