19
Iteration:  1127charge 0 multiplicity 1
 C         0.128865        -0.491993        -0.731667
 C         1.549959        -0.108848        -0.301323
 C         2.546460         0.746895        -1.127604
 C         3.514808         0.929532        -0.007860
 C         2.795358         0.914995         1.313038
 O         1.435773         0.815029         1.029183
 C         3.532732        -0.258192         0.920326
 O         4.664573        -0.792921         1.502268
 C         2.427174        -1.228918         0.448457
 H        -0.228632        -1.362966        -0.263279
 H        -0.480463         0.400320        -0.554836
 H         0.213603        -0.797993        -1.831410
 H         2.761344         0.032390        -1.999462
 H         2.141951         1.751948        -1.514698
 H         4.467357         1.413321        -0.106141
 H         3.142298         1.538062         2.139458
 H         5.429452        -0.316122         1.247988
 H         2.716767        -2.174665        -0.127224
 H         1.822368        -1.634581         1.276892
