19
Iteration:  3478charge 0 multiplicity 1
 C         0.281426        -0.430590        -0.838938
 C         1.545167        -0.103267        -0.203875
 C         2.482951         0.864774        -1.033892
 C         3.517539         0.997067         0.123361
 C         2.786738         0.765433         1.404219
 O         1.399641         0.698160         1.015968
 C         3.553920        -0.297107         0.799968
 O         4.620312        -0.684606         1.620433
 C         2.536372        -1.266857         0.104137
 H        -0.335648         0.477988        -1.166576
 H         0.365173        -1.079935        -1.647560
 H        -0.530026        -0.996692        -0.258488
 H         2.701663         0.380557        -1.984149
 H         1.994478         1.853953        -1.237293
 H         4.181692         1.943432         0.191240
 H         2.858597         1.298683         2.370121
 H         4.415338        -1.537295         2.142831
 H         2.858241        -1.714607        -0.790242
 H         2.265071        -1.950169         0.868875
