19
Iteration:  1273charge 0 multiplicity 1
 C         0.210470        -0.520170        -0.711432
 C         1.564678        -0.089033        -0.176981
 C         2.500844         0.682136        -1.039044
 C         3.611667         0.954964        -0.051526
 C         2.786167         0.958315         1.378059
 O         1.411768         0.825106         1.014944
 C         3.470653        -0.250840         0.835480
 O         4.574346        -0.815115         1.493631
 C         2.479844        -1.191380         0.333838
 H        -0.267287        -1.276630        -0.001001
 H        -0.526638         0.284097        -0.867635
 H         0.407599        -0.995653        -1.620001
 H         2.845333         0.022038        -1.763678
 H         2.207392         1.655753        -1.644372
 H         4.405958         1.567283        -0.288950
 H         3.057061         1.405274         2.356278
 H         5.437010        -0.489525         1.082034
 H         2.687449        -1.873465        -0.454287
 H         2.008606        -1.739968         1.176342
