19
Iteration:  4798
 C         0.239806        -0.460497        -0.851093
 C         1.562468        -0.091173        -0.254240
 C         2.629199         0.859012        -0.982771
 C         3.522392         1.030580         0.207002
 C         2.609817         0.872818         1.524214
 O         1.241431         0.714352         1.037100
 C         3.561952        -0.252955         0.855964
 O         4.757210        -0.815370         1.274818
 C         2.526243        -1.202712         0.283880
 H        -0.578497        -0.429330        -0.145067
 H        -0.073546         0.084490        -1.753790
 H         0.308545        -1.453022        -1.206861
 H         3.191746         0.193152        -1.758011
 H         2.406208         1.628830        -1.580580
 H         4.414725         1.580085         0.077489
 H         2.719598         1.479774         2.485339
 H         4.342324        -1.581741         1.803471
 H         2.847844        -1.916008        -0.482849
 H         2.156358        -1.780193         1.100474
