19
Iteration:   766
 C         0.176679        -0.491815        -0.653558
 C         1.525687        -0.029726        -0.211915
 C         2.534813         0.763412        -1.119706
 C         3.569887         0.904616        -0.044768
 C         2.849409         0.984785         1.248653
 O         1.435936         0.740076         1.000251
 C         3.469443        -0.317753         0.877555
 O         4.679032        -0.699586         1.510862
 C         2.410983        -1.252509         0.333467
 H        -0.339104        -0.746824         0.342465
 H        -0.367183         0.278732        -1.126828
 H         0.340298        -1.385471        -1.349473
 H         2.930020         0.121124        -1.902326
 H         2.238378         1.815245        -1.432557
 H         4.460024         1.417226        -0.069006
 H         3.030662         1.418370         2.236372
 H         4.296303        -1.287308         2.191134
 H         2.805712        -2.012344        -0.434063
 H         1.863753        -1.746455         1.131056
