19
Iteration:  2443charge 0 multiplicity 1
 C         0.263835        -0.417444        -0.829669
 C         1.562554        -0.145129        -0.243553
 C         2.514044         0.843784        -1.038348
 C         3.575986         1.005115         0.081917
 C         2.659362         0.940265         1.358199
 O         1.318632         0.580293         1.076032
 C         3.546216        -0.269992         0.854014
 O         4.601281        -0.741067         1.642373
 C         2.578248        -1.267638         0.175112
 H        -0.438848         0.459427        -1.019048
 H         0.385765        -0.899311        -1.846921
 H        -0.329465        -1.069964        -0.202832
 H         2.839888         0.408507        -2.032506
 H         2.119530         1.792156        -1.197310
 H         4.500502         1.687732         0.112355
 H         2.811666         1.591967         2.235865
 H         5.307440        -0.936759         1.045280
 H         3.052086        -1.527103        -0.740371
 H         2.160068        -1.964289         0.800485
