19
Iteration:  2186
 C         0.159808        -0.488234        -0.721520
 C         1.525760        -0.080412        -0.262856
 C         2.568525         0.882720        -1.069938
 C         3.543899         1.059637         0.063314
 C         2.710134         0.923240         1.318036
 O         1.365212         0.572218         1.072265
 C         3.550303        -0.257387         0.876553
 O         4.671065        -0.790811         1.549359
 C         2.555388        -1.230700         0.111078
 H         0.252508        -0.954463        -1.794467
 H        -0.185076        -1.236977        -0.003347
 H        -0.532414         0.421449        -0.773326
 H         3.060776         0.336646        -1.862550
 H         1.994420         1.781966        -1.310818
 H         4.498841         1.658650         0.053370
 H         2.975046         1.413418         2.231290
 H         4.522129        -0.764244         2.508299
 H         2.913727        -1.765628        -0.769764
 H         2.091490        -1.859443         0.925015
