19
Iteration:   173charge 0 multiplicity 1
 C         0.188449        -0.631237        -0.636792
 C         1.515847         0.036628        -0.179477
 C         2.518431         0.766691        -1.075782
 C         3.587711         0.962417        -0.052781
 C         2.759676         1.070682         1.259523
 O         1.359951         0.835905         0.958723
 C         3.559910        -0.285540         0.961181
 O         4.708894        -0.963425         1.477379
 C         2.474207        -1.091536         0.336804
 H        -0.563562        -0.790588         0.215426
 H        -0.286848        -0.250413        -1.576597
 H         0.573791        -1.692263        -0.967103
 H         2.920422        -0.084912        -1.821692
 H         2.232723         1.580368        -1.676309
 H         4.311620         1.641783        -0.103387
 H         3.014219         1.996015         1.883333
 H         4.333002        -1.538762         2.228293
 H         2.805733        -1.692694        -0.558273
 H         1.847581        -1.812095         0.973760
