19
Iteration:  4492
 C         0.190134        -0.522542        -0.843733
 C         1.599837        -0.102272        -0.248281
 C         2.548945         0.786436        -1.032318
 C         3.552267         1.070161         0.105690
 C         2.669219         0.914265         1.405682
 O         1.404164         0.772830         1.003798
 C         3.522998        -0.299786         0.920702
 O         4.697000        -0.837180         1.465441
 C         2.484414        -1.214371         0.243051
 H         0.202812        -0.141005        -1.871921
 H         0.062750        -1.583067        -0.893237
 H        -0.538972        -0.050123        -0.202613
 H         3.103576         0.300037        -1.850600
 H         2.108744         1.594373        -1.487423
 H         4.276210         1.859133         0.164769
 H         2.731326         1.549432         2.336336
 H         4.400561        -1.092190         2.331403
 H         2.779034        -1.847128        -0.627307
 H         1.983590        -1.897619         0.909429
