19
Iteration:  4379
 C         0.280708        -0.567171        -0.853463
 C         1.581210        -0.063631        -0.277430
 C         2.549458         0.880746        -0.974226
 C         3.490196         1.076362         0.157998
 C         2.727654         0.952049         1.494899
 O         1.334885         0.744743         0.919400
 C         3.466448        -0.316795         0.906740
 O         4.720616        -0.935085         1.404824
 C         2.464698        -1.221488         0.297977
 H         0.313512        -1.367813        -1.622460
 H        -0.357067        -1.015810         0.003633
 H        -0.273308         0.339681        -1.304260
 H         3.085043         0.450104        -1.923216
 H         2.034277         1.792109        -1.369898
 H         4.375217         1.787705         0.139635
 H         2.684838         1.526396         2.467401
 H         5.216078        -0.193885         1.744397
 H         2.988356        -1.962572        -0.364324
 H         1.856190        -1.953254         0.936314
