19
Iteration:  1945charge 0 multiplicity 1
 C         0.283291        -0.574647        -0.779106
 C         1.571746        -0.029982        -0.228113
 C         2.493583         0.979892        -1.033186
 C         3.547238         1.035659         0.054957
 C         2.748832         0.853659         1.369480
 O         1.358542         0.600405         1.054781
 C         3.546538        -0.262177         0.884503
 O         4.731916        -0.772917         1.476849
 C         2.373849        -1.156125         0.223481
 H        -0.374623        -0.565621         0.161215
 H        -0.224409         0.083216        -1.511339
 H         0.400049        -1.518221        -1.199306
 H         2.841272         0.355054        -1.979783
 H         1.902248         1.847451        -1.301229
 H         4.414942         1.794842         0.117460
 H         2.817367         1.251126         2.357213
 H         5.023286        -1.719902         1.352636
 H         2.641007        -1.938210        -0.498025
 H         1.871055        -1.735679         1.020072
