19
Iteration:  1458charge 0 multiplicity 1
 C         0.200939        -0.460038        -0.660127
 C         1.601308        -0.152605        -0.166330
 C         2.422876         0.821925        -1.072168
 C         3.543911         0.967632        -0.073913
 C         2.788093         0.924649         1.271502
 O         1.437630         0.757163         0.924173
 C         3.522213        -0.269612         0.929668
 O         4.640991        -0.858304         1.505021
 C         2.526000        -1.188709         0.302724
 H        -0.478156        -0.235471         0.276824
 H        -0.307839         0.186582        -1.431972
 H         0.030981        -1.524991        -1.004572
 H         2.691998         0.384773        -1.971266
 H         1.687945         1.696591        -1.306799
 H         4.569660         1.532848        -0.034851
 H         2.890401         1.497944         2.187111
 H         4.821964        -0.567113         2.465920
 H         3.036222        -1.798719        -0.455163
 H         2.077110        -2.031868         0.950891
