19
Iteration:  3113charge 0 multiplicity 1
 C         0.225394        -0.325730        -0.938442
 C         1.562850        -0.098859        -0.196895
 C         2.546419         0.777464        -1.042363
 C         3.522736         0.949293         0.114715
 C         2.719187         0.779617         1.387575
 O         1.306823         0.607412         1.062921
 C         3.539527        -0.286469         0.894085
 O         4.757390        -0.645386         1.538693
 C         2.499531        -1.246268         0.176265
 H        -0.402290         0.458536        -0.698731
 H         0.415814        -0.342348        -2.058704
 H        -0.351099        -1.255295        -0.578030
 H         2.871868         0.141333        -1.874324
 H         1.945985         1.703131        -1.454341
 H         4.219512         1.656370         0.197007
 H         2.992501         1.387530         2.289670
 H         4.612820        -0.785865         2.549009
 H         2.867287        -1.848595        -0.668083
 H         1.953823        -1.854478         0.861295
