19
Iteration:  1983charge 0 multiplicity 1
 C         0.160491        -0.504654        -0.896203
 C         1.514289        -0.138423        -0.185290
 C         2.467639         0.792142        -0.968231
 C         3.522941         1.056083         0.103444
 C         2.707246         0.961479         1.418008
 O         1.363456         0.722174         1.045514
 C         3.495898        -0.281461         0.987076
 O         4.823810        -0.867828         1.328011
 C         2.545330        -1.195604         0.242316
 H        -0.322731        -1.264348        -0.373175
 H        -0.411220         0.424130        -0.888364
 H         0.252559        -0.917840        -1.960157
 H         2.904582         0.384607        -1.804446
 H         1.975060         1.718735        -1.420218
 H         4.399741         1.689682         0.114705
 H         2.881170         1.593193         2.325802
 H         4.767930        -0.798577         2.365435
 H         3.035925        -1.560961        -0.673447
 H         2.094723        -1.973446         0.850710
