19
Iteration:  1122
 C         0.113356        -0.450390        -0.776490
 C         1.514873        -0.081072        -0.255766
 C         2.544313         0.716756        -1.142270
 C         3.537152         0.896104        -0.013981
 C         2.794425         0.894622         1.350485
 O         1.413685         0.833363         1.029279
 C         3.541425        -0.271010         0.923567
 O         4.702494        -0.784568         1.518925
 C         2.436027        -1.241556         0.424335
 H        -0.251297        -1.441185        -0.315976
 H        -0.667810         0.326964        -0.655329
 H         0.114246        -0.751344        -1.820664
 H         2.850217         0.079112        -1.986436
 H         1.982377         1.549145        -1.495184
 H         4.464114         1.471631        -0.276743
 H         3.073609         1.588459         2.146038
 H         5.524656        -0.264722         1.237500
 H         2.854096        -2.055358        -0.149078
 H         1.954746        -1.599762         1.358802
