19
Iteration:  4409
 C         0.309156        -0.491518        -0.945422
 C         1.571217        -0.085042        -0.181416
 C         2.545276         0.787862        -1.016936
 C         3.566292         0.994572         0.011391
 C         2.773660         0.926962         1.384908
 O         1.249747         0.675289         1.113802
 C         3.514887        -0.246008         0.868953
 O         4.682228        -0.882871         1.457841
 C         2.474851        -1.168067         0.286037
 H         0.283276        -0.521237        -2.052238
 H        -0.198369        -1.428123        -0.557167
 H        -0.438069         0.275905        -0.750336
 H         2.867413         0.214348        -1.884084
 H         2.040158         1.865773        -1.162133
 H         4.268510         1.803518         0.030288
 H         2.869381         1.604920         2.267402
 H         4.692186        -0.495294         2.395664
 H         3.115732        -1.603053        -0.513964
 H         2.060442        -1.786505         1.117239
