19
Iteration:  1591charge 0 multiplicity 1
 C         0.156773        -0.475631        -0.671842
 C         1.523119        -0.112410        -0.120074
 C         2.470594         0.657480        -1.078780
 C         3.642713         1.012082        -0.042315
 C         2.793797         0.935742         1.292483
 O         1.459050         0.771260         1.028931
 C         3.579072        -0.242501         0.753536
 O         4.598737        -0.731205         1.513572
 C         2.451099        -1.214959         0.300898
 H        -0.008995        -1.510237        -0.411480
 H        -0.525466         0.296403        -0.424036
 H         0.209382        -0.554263        -1.850705
 H         2.779489         0.088836        -1.890640
 H         2.035955         1.674279        -1.459042
 H         4.628642         1.356754        -0.146390
 H         3.128101         1.460590         2.170471
 H         4.235388        -1.144189         2.375583
 H         2.648072        -1.964485        -0.499529
 H         2.079516        -1.810119         1.174524
