19
Iteration:  3129charge 0 multiplicity 1
 C         0.254679        -0.427340        -0.944003
 C         1.494683        -0.034819        -0.293306
 C         2.563969         0.858339        -0.982724
 C         3.575873         1.021553         0.098743
 C         2.645861         0.877616         1.377863
 O         1.330388         0.529264         1.071442
 C         3.591162        -0.315774         0.892117
 O         4.767526        -0.742027         1.499109
 C         2.429926        -1.189790         0.269314
 H        -0.545619         0.429610        -0.921403
 H         0.344757        -0.897021        -1.902123
 H        -0.306433        -1.195261        -0.436059
 H         3.038522         0.471031        -1.905477
 H         2.248240         1.812951        -1.319015
 H         4.586487         1.669980        -0.045348
 H         2.771171         1.436647         2.273646
 H         4.495361        -0.809266         2.438901
 H         2.767634        -1.935154        -0.500780
 H         1.900080        -1.817350         1.100671
