19
Iteration:  2170charge 0 multiplicity 1
 C         0.169664        -0.401938        -0.722253
 C         1.592847        -0.107709        -0.233494
 C         2.519950         0.838953        -1.031150
 C         3.533031         1.082254         0.080625
 C         2.714055         0.769438         1.339923
 O         1.348683         0.571702         1.000086
 C         3.621466        -0.310513         0.751254
 O         4.680419        -0.659868         1.592708
 C         2.546548        -1.208542         0.196775
 H         0.086761        -1.087239        -1.485359
 H        -0.424255        -0.760954         0.137926
 H        -0.305329         0.480002        -1.066960
 H         2.917478         0.214857        -1.881918
 H         2.143863         1.897145        -1.442311
 H         4.206147         1.922912         0.057270
 H         2.853367         1.262665         2.319669
 H         4.220939        -1.525178         1.931124
 H         2.934628        -1.839930        -0.647837
 H         2.073822        -1.852497         0.941186
