19
Iteration:  3442
 C         0.218427        -0.565194        -0.865673
 C         1.559217        -0.085986        -0.261671
 C         2.557648         0.972258        -1.060267
 C         3.564413         1.028861         0.132538
 C         2.646327         0.960857         1.424269
 O         1.335574         0.616865         1.034636
 C         3.550436        -0.262383         0.947567
 O         4.670274        -0.936050         1.424351
 C         2.541555        -1.158323         0.217763
 H        -0.140044         0.180154        -1.578484
 H         0.439260        -1.601945        -1.320253
 H        -0.342323        -0.635282         0.008929
 H         2.912851         0.656809        -1.967730
 H         2.227340         2.024128        -1.180172
 H         4.173529         1.768733         0.369528
 H         2.954203         1.731636         2.132692
 H         4.556711        -0.843503         2.450234
 H         3.038723        -1.776961        -0.560136
 H         1.965742        -1.843572         0.810810
