19
Iteration:  4746charge 0 multiplicity 1
 C         0.212157        -0.500606        -0.815690
 C         1.556551        -0.068743        -0.243394
 C         2.443199         0.941238        -0.956075
 C         3.649968         1.019982         0.064830
 C         2.766699         0.769431         1.339203
 O         1.363236         0.677269         1.027195
 C         3.571412        -0.343683         0.795808
 O         4.653782        -0.765803         1.599905
 C         2.527318        -1.173902         0.153225
 H        -0.471138        -0.842641        -0.042625
 H        -0.216590         0.347077        -1.400329
 H         0.273121        -1.280961        -1.618537
 H         2.463276         0.720985        -2.047221
 H         1.813167         1.876043        -0.830986
 H         4.467421         1.693422        -0.095825
 H         3.039642         1.123080         2.376825
 H         4.191113        -1.151236         2.400135
 H         2.866337        -1.670438        -0.771278
 H         2.118447        -1.880527         0.869674
