19
Iteration:  3147
 C         0.241846        -0.523181        -0.892485
 C         1.606918        -0.123416        -0.254043
 C         2.520193         0.964680        -1.013642
 C         3.518545         1.056962         0.116670
 C         2.732584         0.896795         1.437516
 O         1.342308         0.693060         0.968753
 C         3.487281        -0.330676         0.925078
 O         4.676611        -0.825946         1.439115
 C         2.534309        -1.217816         0.277214
 H        -0.237013         0.309085        -1.303673
 H         0.528639        -1.246244        -1.759044
 H        -0.378429        -1.115098        -0.215988
 H         2.882017         0.569988        -1.934669
 H         1.895650         1.956324        -1.188833
 H         4.385776         1.666623         0.344693
 H         2.889852         1.431415         2.365256
 H         4.498730        -1.183469         2.346938
 H         3.042420        -1.883115        -0.466447
 H         2.027351        -1.815586         1.052444
