19
Iteration:   759charge 0 multiplicity 1
 C         0.154454        -0.549029        -0.637273
 C         1.546381        -0.084283        -0.244778
 C         2.540969         0.780911        -1.149459
 C         3.556262         0.921369        -0.002316
 C         2.816159         0.986361         1.272628
 O         1.491226         0.745221         0.981367
 C         3.494752        -0.294413         0.895305
 O         4.646363        -0.737421         1.515267
 C         2.405643        -1.171184         0.359387
 H        -0.253883        -0.921080         0.255681
 H        -0.454782         0.285397        -1.002419
 H         0.223646        -1.384528        -1.352223
 H         2.926782         0.334625        -2.047179
 H         2.145588         1.840555        -1.438538
 H         4.636772         1.288298        -0.233654
 H         3.135871         1.595051         2.122950
 H         4.418840        -1.483386         2.155784
 H         2.700461        -1.839379        -0.439469
 H         1.685997        -1.666616         1.035868
