19
Iteration:  4876
 C         0.160982        -0.408084        -0.717048
 C         1.565355        -0.111329        -0.251339
 C         2.485549         0.809821        -1.026224
 C         3.495472         1.096272         0.058618
 C         2.791000         0.842440         1.364455
 O         1.412263         0.647739         0.982614
 C         3.583996        -0.292219         0.841892
 O         4.657509        -0.819424         1.653372
 C         2.558873        -1.180020         0.049061
 H        -0.230091        -1.311457        -0.275480
 H        -0.407129         0.448433        -0.355918
 H         0.043997        -0.698068        -1.782676
 H         3.111982         0.305604        -1.957657
 H         1.991716         1.698310        -1.283986
 H         4.531215         1.562066        -0.189338
 H         2.785708         1.294585         2.342286
 H         4.104811        -0.902867         2.467784
 H         2.844367        -1.783882        -0.817917
 H         1.956561        -1.706506         0.772042
