19
Iteration:  2423charge 0 multiplicity 1
 C         0.182458        -0.367552        -0.925393
 C         1.534850        -0.131481        -0.198770
 C         2.461324         0.806978        -1.009164
 C         3.491447         0.979501         0.080727
 C         2.722095         0.848226         1.307985
 O         1.336993         0.611397         1.000630
 C         3.572313        -0.302092         0.948450
 O         4.746881        -0.766309         1.681796
 C         2.578503        -1.237645         0.188828
 H        -0.509467         0.594440        -0.690233
 H         0.219753        -0.380360        -2.025583
 H        -0.461375        -1.185468        -0.656872
 H         2.767250         0.265091        -1.862362
 H         1.968295         1.783087        -1.207874
 H         4.278090         1.704200        -0.144276
 H         2.837938         1.464712         2.213026
 H         5.404293        -0.031549         1.527511
 H         2.973807        -1.690947        -0.768955
 H         2.201304        -1.965392         0.924764
