19
Iteration:    61charge 0 multiplicity 1
 C         0.145807        -0.527080        -0.720092
 C         1.545016        -0.126043        -0.258889
 C         2.528860         0.677080        -1.104020
 C         3.599989         0.953712        -0.085907
 C         2.766832         1.023901         1.281009
 O         1.361659         0.782399         1.045533
 C         3.584501        -0.211325         0.876498
 O         4.704940        -0.845457         1.510579
 C         2.472678        -1.164099         0.437406
 H        -0.284577        -1.297228        -0.011941
 H        -0.507667         0.358138        -0.586210
 H         0.048659        -0.669329        -1.849973
 H         2.801278         0.095183        -2.046798
 H         2.111830         1.625641        -1.501798
 H         4.521655         1.638052        -0.365037
 H         2.957567         1.791133         1.988806
 H         4.414549        -1.392518         2.234947
 H         2.804611        -1.974759        -0.289754
 H         1.886340        -1.434527         1.344622
