19
Iteration:   264
 C         0.038209        -0.285516        -0.744292
 C         1.517026        -0.187382        -0.154090
 C         2.596293         0.548964        -1.141955
 C         3.592441         0.927432        -0.026847
 C         2.789999         1.017631         1.218916
 O         1.433267         0.705407         1.022237
 C         3.575170        -0.231120         0.850388
 O         4.674188        -0.681716         1.538416
 C         2.471800        -1.285359         0.397755
 H        -0.468440        -1.192308        -0.504196
 H        -0.585388         0.610796        -0.349041
 H         0.120509        -0.216827        -1.803386
 H         2.979900        -0.203534        -1.802059
 H         1.997044         1.398247        -1.654288
 H         4.587616         1.511030        -0.279088
 H         2.967157         1.497803         2.177759
 H         4.437096        -0.769969         2.480368
 H         2.748123        -1.996885        -0.339692
 H         2.069784        -1.827813         1.229773
