19
Iteration:  1551charge 0 multiplicity 1
 C         0.084570        -0.550355        -0.772483
 C         1.505355        -0.097676        -0.248187
 C         2.461971         0.716859        -1.078693
 C         3.542409         0.861083         0.055261
 C         2.793086         1.029255         1.354694
 O         1.402790         0.870657         0.927316
 C         3.514920        -0.248302         1.017597
 O         4.898813        -0.831491         1.455454
 C         2.417737        -1.148513         0.375319
 H        -0.221766        -1.531197        -0.444991
 H        -0.712757         0.140611        -0.328242
 H         0.195742        -0.447916        -1.878584
 H         2.865062         0.314636        -2.123695
 H         1.934625         1.574047        -1.259624
 H         4.563171         1.344713        -0.254465
 H         2.769565         1.791342         2.106215
 H         4.610836        -1.699054         1.596625
 H         2.902946        -1.936691        -0.250755
 H         1.972956        -1.673167         1.199145
