19
Iteration:   363
 C         0.079225        -0.329420        -0.752474
 C         1.522140        -0.164121        -0.265238
 C         2.522364         0.652423        -1.099221
 C         3.579417         0.862485        -0.031468
 C         2.770599         0.993622         1.214112
 O         1.385499         0.728298         1.034869
 C         3.564429        -0.290173         0.918825
 O         4.798291        -0.720572         1.537593
 C         2.453607        -1.258169         0.399588
 H        -0.435023        -0.035931         0.167936
 H        -0.097957         0.343324        -1.614023
 H        -0.185847        -1.307699        -1.084628
 H         2.784177         0.215482        -2.006291
 H         2.052574         1.666160        -1.391255
 H         4.332245         1.523703        -0.178080
 H         2.939944         1.821618         1.952763
 H         4.612593        -0.964683         2.436165
 H         2.801109        -2.005319        -0.313653
 H         1.900277        -1.739841         1.187486
