19
Iteration:  3244charge 0 multiplicity 1
 C         0.208279        -0.346620        -0.990363
 C         1.514604        -0.091864        -0.251875
 C         2.471152         0.809895        -0.977269
 C         3.526236         0.922029         0.111374
 C         2.692567         0.837794         1.426748
 O         1.296819         0.590335         1.058985
 C         3.564533        -0.306336         0.966725
 O         4.784226        -0.708325         1.497531
 C         2.534207        -1.231406         0.197640
 H        -0.117456         0.637140        -1.128942
 H         0.348086        -0.959839        -1.975037
 H        -0.525487        -0.885991        -0.368929
 H         3.002409         0.503079        -1.861603
 H         2.063688         1.856379        -1.177413
 H         4.426911         1.626567        -0.069445
 H         2.982133         1.418766         2.279397
 H         4.664575        -0.542620         2.431359
 H         3.063291        -1.639443        -0.673596
 H         2.190965        -2.013192         0.775753
