19
Iteration:   267
 C         0.044650        -0.312100        -0.729333
 C         1.533660        -0.215323        -0.166701
 C         2.586410         0.565118        -1.103984
 C         3.624220         0.965784        -0.027412
 C         2.793621         1.027406         1.202630
 O         1.414414         0.744690         1.012447
 C         3.567993        -0.268388         0.846740
 O         4.667008        -0.683451         1.534626
 C         2.450279        -1.297158         0.395402
 H        -0.476250        -1.248186        -0.383071
 H        -0.499133         0.511846        -0.425240
 H         0.106355        -0.114470        -1.826417
 H         3.015158        -0.087926        -1.869598
 H         2.011709         1.412962        -1.633496
 H         4.524136         1.425254        -0.295193
 H         3.015526         1.463789         2.235646
 H         4.474742        -0.812651         2.452963
 H         2.819049        -2.065083        -0.337689
 H         2.038239        -1.802565         1.245682
