19
Iteration:  2820charge 0 multiplicity 1
 C         0.148958        -0.308264        -0.860553
 C         1.546067        -0.133549        -0.249015
 C         2.622460         0.716766        -1.017710
 C         3.552063         0.983595         0.054624
 C         2.703830         0.820739         1.332321
 O         1.343450         0.592407         1.048929
 C         3.540509        -0.303002         0.871528
 O         4.689676        -0.577263         1.589043
 C         2.528191        -1.288570         0.212607
 H        -0.331748         0.560036        -0.507078
 H         0.234986        -0.193051        -1.997794
 H        -0.328474        -1.316240        -0.674091
 H         2.976583         0.151762        -1.867125
 H         2.026809         1.664847        -1.411905
 H         4.501998         1.616218         0.172965
 H         2.896428         1.301657         2.292563
 H         4.368910        -1.019480         2.452466
 H         2.938440        -1.658044        -0.729443
 H         2.020754        -1.959705         0.866442
