19
Iteration:  4167charge 0 multiplicity 1
 C         4.614752        -1.200471        -1.399086
 C         3.506900        -0.480834        -0.653900
 O         2.227748        -0.439043        -1.172654
 C         1.464434         0.216366        -0.157639
 C        -0.051735         0.114700        -0.280476
 C         2.259123         1.466388         0.257842
 C         3.677756         0.746179         0.232300
 C         3.147773        -0.595638         0.817744
 O         1.811011        -0.565325         1.000673
 H         5.325281        -0.478327        -1.961599
 H         5.362538        -1.696403        -0.621097
 H         4.073463        -1.865455        -2.140608
 H        -0.531226         0.417183         0.652948
 H        -0.489188         0.699157        -1.096318
 H        -0.267213        -0.919879        -0.156443
 H         2.018738         2.226722        -0.505607
 H         1.911636         1.690937         1.220037
 H         4.561673         1.174505         0.627763
 H         3.672946        -1.123918         1.603633
