19
Iteration:  4947charge 0 multiplicity 1
 C         4.491806        -1.281697        -1.390029
 C         3.490032        -0.453006        -0.596381
 O         2.231082        -0.418331        -1.139381
 C         1.465485         0.144879        -0.101471
 C        -0.065200         0.014794        -0.406961
 C         2.246191         1.541683         0.171275
 C         3.604961         0.913508         0.212957
 C         3.273492        -0.547285         0.844303
 O         1.899145        -0.606326         1.127576
 H         5.485323        -0.997385        -1.014062
 H         4.112283        -2.371770        -1.506406
 H         4.613682        -0.768400        -2.356552
 H        -0.673914         0.525428         0.358740
 H        -0.377652         0.202091        -1.452294
 H        -0.215910        -1.106098        -0.341299
 H         2.152014         2.118122        -0.820429
 H         1.922837         1.880665         1.218150
 H         4.658589         1.362344         0.389812
 H         3.846899        -1.187120         1.594620
