19
Iteration:  4018charge 0 multiplicity 1
 C         4.592452        -1.139327        -1.386810
 C         3.506986        -0.471474        -0.616964
 O         2.253065        -0.461117        -1.274509
 C         1.465565         0.179022        -0.181336
 C        -0.004022         0.204811        -0.267335
 C         2.252033         1.455076         0.271129
 C         3.660309         0.774795         0.315098
 C         3.216934        -0.602582         0.892963
 O         1.705576        -0.683455         0.964063
 H         4.197433        -2.091279        -1.737364
 H         4.901263        -0.553155        -2.366571
 H         5.495284        -1.508167        -0.860468
 H        -0.187525         0.715316         0.661581
 H        -0.508809         0.814231        -1.053892
 H        -0.332108        -0.832771        -0.364517
 H         2.219628         2.403604        -0.373900
 H         2.031729         1.715380         1.295549
 H         4.538695         1.291339         0.570948
 H         3.705724        -1.196818         1.547347
