19
Iteration:  2289
 C         4.561889        -1.029416        -1.518034
 C         3.580390        -0.480333        -0.539544
 O         2.321082        -0.015966        -1.248064
 C         1.492628         0.304579        -0.095591
 C         0.047278         0.517724        -0.554929
 C         2.467901         1.351419         0.492561
 C         3.652363         0.454362         0.719565
 C         2.984642        -1.025872         0.804641
 O         1.557847        -0.905635         0.799426
 H         5.633004        -1.237805        -1.243544
 H         4.021248        -1.885850        -1.854888
 H         4.540970        -0.368435        -2.429929
 H        -0.415416         0.721988         0.420796
 H        -0.054865         1.278969        -1.374068
 H        -0.263949        -0.489220        -0.922752
 H         2.709893         2.019767        -0.263659
 H         2.069782         1.853352         1.313522
 H         4.600026         0.855366         1.150634
 H         3.332058        -1.861301         1.356736
