19
Iteration:  3644
 C         4.467750        -1.143873        -1.481908
 C         3.505309        -0.497202        -0.533399
 O         2.228098        -0.416681        -1.200451
 C         1.481496         0.103108        -0.087734
 C         0.014330         0.299810        -0.396877
 C         2.261708         1.457369         0.142590
 C         3.564941         0.757689         0.393755
 C         3.253842        -0.593438         0.917961
 O         1.814603        -0.742611         1.037982
 H         5.158082        -1.905421        -1.030166
 H         4.018326        -1.476269        -2.409488
 H         5.328532        -0.420535        -1.879183
 H        -0.456213         0.626594         0.508056
 H        -0.091564         0.955451        -1.208782
 H        -0.301864        -0.671755        -0.713811
 H         2.414241         2.075811        -0.693873
 H         1.874182         1.981553         1.006450
 H         4.557371         1.277016         0.678280
 H         3.904647        -1.250231         1.574526
