19
Iteration:   425charge 0 multiplicity 1
 C         4.526971        -1.143845        -1.390080
 C         3.484329        -0.437028        -0.617766
 O         2.169303        -0.477067        -1.142831
 C         1.434213         0.080051         0.015429
 C        -0.073567         0.141689        -0.410646
 C         2.202019         1.470877         0.087784
 C         3.622501         0.951452         0.230087
 C         3.374729        -0.505700         0.846954
 O         1.896301        -0.809323         1.162353
 H         4.052552        -2.000309        -1.976568
 H         5.136201        -0.661535        -2.222691
 H         5.310821        -1.658499        -0.717708
 H        -0.574406         0.504579         0.438193
 H        -0.066190         0.779416        -1.317751
 H        -0.609624        -0.713537        -0.701256
 H         2.072953         1.984956        -0.917653
 H         2.025159         2.308345         0.648172
 H         4.442591         1.712281         0.446466
 H         3.992160        -1.119794         1.559362
