19
Iteration:  1596
 C         4.614377        -0.981268        -1.382539
 C         3.488281        -0.524587        -0.567180
 O         2.300448         0.070487        -1.281173
 C         1.534483         0.348678        -0.132380
 C         0.117128         0.698275        -0.576475
 C         2.501322         1.342966         0.593820
 C         3.603500         0.225276         0.766740
 C         2.913926        -1.158780         0.661430
 O         1.542259        -0.942961         0.743549
 H         5.530583        -0.720579        -0.944194
 H         4.517910        -1.957021        -1.728864
 H         4.504384        -0.382207        -2.264772
 H        -0.503525         1.041731         0.239180
 H         0.253258         1.523993        -1.304653
 H        -0.356754        -0.149104        -0.953872
 H         2.802297         2.347388         0.008096
 H         2.194837         1.683084         1.622843
 H         4.649704         0.394636         1.028401
 H         3.322699        -1.983968         1.210804
