19
Iteration:  4906charge 0 multiplicity 1
 C         4.485590        -1.212037        -1.375424
 C         3.475011        -0.437528        -0.596311
 O         2.235484        -0.423428        -1.163506
 C         1.444508         0.157312        -0.112614
 C        -0.052315        -0.015087        -0.312797
 C         2.250868         1.522550         0.066700
 C         3.643538         0.816700         0.238380
 C         3.258811        -0.475277         0.896780
 O         1.891513        -0.646617         1.076261
 H         5.143085        -1.724370        -0.679563
 H         4.006537        -2.002620        -1.963975
 H         5.052681        -0.517724        -1.940598
 H        -0.513490         0.463822         0.509746
 H        -0.490792         0.394385        -1.158970
 H        -0.433411        -1.037022        -0.329709
 H         2.213291         2.069189        -0.929195
 H         2.010807         2.131597         1.047354
 H         4.565522         1.436585         0.389495
 H         4.030209        -1.118565         1.476900
