19
Iteration:  3385charge 0 multiplicity 1
 C         4.513288        -1.157441        -1.548776
 C         3.522631        -0.531715        -0.639052
 O         2.224206        -0.405625        -1.184122
 C         1.438262         0.277199        -0.180017
 C         0.030385         0.100983        -0.408265
 C         2.337242         1.503750         0.332237
 C         3.660921         0.720122         0.325971
 C         3.163534        -0.660613         0.912502
 O         1.741968        -0.610283         1.081151
 H         5.171141        -1.789955        -0.929172
 H         4.044600        -1.519755        -2.475182
 H         5.253241        -0.545280        -1.961707
 H        -0.472349         0.629446         0.502872
 H        -0.482335         0.686912        -1.200009
 H        -0.130293        -1.055777        -0.647405
 H         2.335699         2.445719        -0.371629
 H         2.127837         1.764141         1.437532
 H         4.672370         1.118213         0.626939
 H         3.707757        -1.254315         1.809384
