19
Iteration:  3525
 C         4.441956        -1.203909        -1.462542
 C         3.558851        -0.460505        -0.564900
 O         2.215644        -0.344805        -1.189532
 C         1.508900         0.144685        -0.140618
 C         0.012507         0.248436        -0.453617
 C         2.290860         1.428153         0.285667
 C         3.639320         0.803921         0.380807
 C         3.211603        -0.675594         0.903310
 O         1.792300        -0.687664         1.022368
 H         5.462270        -0.821638        -1.572915
 H         4.438911        -2.233686        -1.466770
 H         4.133581        -1.129374        -2.447845
 H        -0.490540         0.697231         0.436848
 H        -0.183977         0.771150        -1.378563
 H        -0.229229        -0.830385        -0.612760
 H         2.198268         2.113378        -0.513093
 H         2.007476         1.852387         1.249216
 H         4.544884         1.219758         0.752217
 H         3.710003        -1.288643         1.535049
