19
Iteration:  1372charge 0 multiplicity 1
 C         4.632370        -1.114661        -1.397868
 C         3.475061        -0.483816        -0.586469
 O         2.355125         0.035906        -1.323122
 C         1.513768         0.324926        -0.130049
 C         0.074624         0.637816        -0.463927
 C         2.502199         1.278271         0.685800
 C         3.659498         0.383137         0.663815
 C         2.919831        -1.025609         0.709902
 O         1.534889        -0.892603         0.633077
 H         4.589038        -2.136827        -1.719635
 H         4.634187        -0.456905        -2.311924
 H         5.426705        -0.727443        -0.777004
 H        -0.507307         0.833587         0.477423
 H        -0.161961         1.512007        -1.195910
 H        -0.303920        -0.301966        -0.876215
 H         2.622459         2.256041         0.083627
 H         1.974125         1.361042         1.693718
 H         4.532156         0.530701         1.354954
 H         3.307374        -1.912625         1.199804
