19
Iteration:   107charge 0 multiplicity 1
 C         4.602084        -1.088651        -1.359122
 C         3.504403        -0.387599        -0.623450
 O         2.133357        -0.588462        -1.129688
 C         1.444823         0.027682        -0.011464
 C        -0.092026         0.019111        -0.123650
 C         2.171305         1.459658        -0.146126
 C         3.534870         0.926115         0.075753
 C         3.371955        -0.357095         0.877353
 O         1.966792        -0.710675         1.136499
 H         4.825705        -0.927524        -2.442851
 H         5.531397        -0.938927        -0.787799
 H         4.427314        -2.154239        -1.205667
 H        -0.559226         0.673374         0.637670
 H        -0.426748         0.340730        -1.150400
 H        -0.519692        -0.989607         0.061849
 H         1.992742         1.614817        -1.192463
 H         1.967858         2.325795         0.573458
 H         4.329646         1.621387         0.232724
 H         4.067395        -0.724760         1.577321
