19
Iteration:  3677charge 0 multiplicity 1
 C         4.489246        -1.167709        -1.429663
 C         3.508718        -0.463563        -0.630664
 O         2.204192        -0.381794        -1.173645
 C         1.426933         0.151873        -0.036829
 C         0.010613         0.202208        -0.486298
 C         2.302664         1.495980         0.260660
 C         3.566162         0.743584         0.321115
 C         3.268485        -0.622473         0.844047
 O         1.831258        -0.694379         1.080447
 H         4.816905        -2.147684        -0.912987
 H         4.041789        -1.619214        -2.341027
 H         5.407344        -0.394572        -1.655171
 H        -0.772653         0.462990         0.201997
 H        -0.019735         0.796883        -1.338654
 H        -0.319965        -0.799348        -0.637809
 H         2.342632         2.280711        -0.479783
 H         2.138343         1.955174         1.224732
 H         4.605705         1.183850         0.594798
 H         4.001097        -1.326839         1.411190
