19
Iteration:  4225charge 0 multiplicity 1
 C         4.612944        -1.057415        -1.505670
 C         3.503572        -0.512736        -0.604259
 O         2.147186        -0.567626        -1.114897
 C         1.465034         0.124431         0.000305
 C         0.009326         0.250875        -0.405176
 C         2.265235         1.485112         0.118964
 C         3.597608         0.735299         0.274193
 C         3.300990        -0.613834         0.934470
 O         1.797280        -0.656820         1.124562
 H         5.481886        -0.360562        -1.435222
 H         4.753929        -2.109573        -1.492019
 H         4.152466        -0.848869        -2.531166
 H        -0.619076         0.749710         0.386368
 H        -0.168758         0.867579        -1.322034
 H        -0.471621        -0.722740        -0.763701
 H         2.176575         1.968203        -0.918421
 H         1.808803         2.201169         0.836754
 H         4.480827         1.426583         0.413241
 H         3.923281        -1.281910         1.612723
