19
Iteration:  2422
 C         4.498382        -0.972521        -1.542776
 C         3.479570        -0.444110        -0.555628
 O         2.229477        -0.167514        -1.209337
 C         1.527162         0.242649        -0.120000
 C         0.182505         0.525249        -0.610746
 C         2.400103         1.391422         0.500196
 C         3.613490         0.429967         0.661371
 C         3.058574        -0.947263         0.805599
 O         1.668348        -0.873046         0.896450
 H         4.150465        -1.673794        -2.321454
 H         5.034779        -0.240877        -2.117132
 H         5.307442        -1.388002        -0.887925
 H        -0.543146         0.832076         0.196762
 H         0.137469         1.317763        -1.366760
 H        -0.352296        -0.404864        -1.052236
 H         2.426825         2.119269        -0.287175
 H         1.952179         1.724178         1.424274
 H         4.598501         0.631692         1.025463
 H         3.485942        -1.726336         1.417680
