19
Iteration:  1169charge 0 multiplicity 1
 C         4.640817        -1.008965        -1.525377
 C         3.512129        -0.539355        -0.531069
 O         2.316944        -0.065492        -1.278345
 C         1.481738         0.379385        -0.206488
 C        -0.043836         0.488750        -0.488266
 C         2.489528         1.330845         0.553108
 C         3.647151         0.394220         0.730166
 C         2.994674        -1.012686         0.754438
 O         1.615229        -0.796432         0.772491
 H         5.640270        -1.263427        -0.977958
 H         4.254900        -1.860639        -2.051986
 H         4.940247        -0.139299        -2.193325
 H        -0.502979         0.632280         0.491634
 H        -0.413618         1.320840        -1.108896
 H        -0.324635        -0.440488        -0.954478
 H         2.672003         2.218054         0.087599
 H         1.934709         1.534486         1.381522
 H         4.567613         0.540092         1.269468
 H         3.332296        -1.884150         1.381502
