19
Iteration:  1899charge 0 multiplicity 1
 C         4.630497        -1.028236        -1.363141
 C         3.507497        -0.384738        -0.569877
 O         2.259451        -0.105056        -1.280924
 C         1.465030         0.192270        -0.184011
 C         0.132367         0.735579        -0.375631
 C         2.392751         1.341445         0.512883
 C         3.614590         0.437746         0.711578
 C         3.019983        -0.992915         0.688987
 O         1.589297        -1.029661         0.659860
 H         4.219736        -1.402416        -2.375517
 H         5.524980        -0.425183        -1.578465
 H         4.953988        -2.011445        -0.892845
 H        -0.358473         0.962624         0.643115
 H         0.431674         1.735146        -0.863590
 H        -0.534549         0.048576        -1.062401
 H         2.589798         2.098522        -0.214704
 H         2.089557         1.946331         1.372741
 H         4.588515         0.562910         1.251972
 H         3.437040        -1.732098         1.273485
