19
Iteration:    20
 C         4.453941        -1.080204        -1.477523
 C         3.463231        -0.346072        -0.648630
 O         2.137860        -0.587086        -1.139784
 C         1.502026         0.075429        -0.055451
 C         0.090714        -0.150182        -0.100235
 C         2.216081         1.439409        -0.295111
 C         3.582693         0.973572         0.265994
 C         3.314761        -0.420646         0.974310
 O         1.897621        -0.569624         1.249769
 H         5.446397        -0.658688        -1.434098
 H         4.413866        -2.088881        -1.176747
 H         4.052538        -1.049897        -2.456454
 H        -0.498035         0.214411         0.740505
 H        -0.290856         0.338535        -1.070533
 H        -0.048753        -1.232723        -0.221361
 H         2.318958         1.349829        -1.359205
 H         1.717011         2.425626         0.064769
 H         4.504313         1.559002         0.234055
 H         4.022299        -0.991047         1.654282
