19
Iteration:  3782
 C         4.635938        -1.081780        -1.515320
 C         3.471743        -0.524856        -0.579386
 O         2.148045        -0.517277        -1.201675
 C         1.456396         0.198824        -0.100394
 C         0.010775         0.255168        -0.450264
 C         2.286566         1.450785         0.333021
 C         3.653377         0.666054         0.315955
 C         3.232228        -0.619823         0.933212
 O         1.773942        -0.632718         0.991346
 H         5.465592        -1.365310        -0.842336
 H         4.090888        -1.810599        -2.049712
 H         4.957510        -0.299523        -2.180545
 H        -0.453847         0.717701         0.456713
 H        -0.308374         1.032170        -1.280964
 H        -0.478627        -0.714492        -0.828427
 H         2.283977         2.425947        -0.158427
 H         1.951443         1.544622         1.456513
 H         4.678026         1.248183         0.484801
 H         3.780123        -1.268243         1.743385
