19
Iteration:  2609charge 0 multiplicity 1
 C         4.617928        -1.076924        -1.411527
 C         3.483651        -0.463495        -0.659535
 O         2.297152        -0.163151        -1.300469
 C         1.495514         0.276070        -0.229958
 C        -0.053167         0.390957        -0.366020
 C         2.411343         1.445968         0.490181
 C         3.651619         0.541172         0.615688
 C         3.063888        -0.862710         0.784670
 O         1.634254        -0.839780         0.794116
 H         5.411709        -0.317453        -1.408195
 H         5.068344        -1.839623        -0.826526
 H         4.239024        -1.603734        -2.291529
 H        -0.286818         0.744639         0.691226
 H        -0.430199         0.961509        -1.331511
 H        -0.229960        -0.724353        -0.360873
 H         2.800659         2.219702        -0.135270
 H         2.002541         1.728403         1.456531
 H         4.622146         0.820244         0.959622
 H         3.528313        -1.701119         1.330396
