19
Iteration:   420
 C         4.544333        -1.147786        -1.379756
 C         3.470995        -0.393914        -0.627706
 O         2.199082        -0.454310        -1.144654
 C         1.443347         0.044530         0.022414
 C        -0.079682         0.162980        -0.384385
 C         2.178782         1.451266         0.025534
 C         3.638392         0.905340         0.205620
 C         3.356182        -0.511139         0.867125
 O         1.872870        -0.806805         1.168587
 H         4.012337        -1.868853        -1.996858
 H         5.147255        -0.524971        -2.021886
 H         5.139759        -1.809524        -0.799572
 H        -0.519385         0.562999         0.587749
 H         0.045122         0.822212        -1.238807
 H        -0.469946        -0.865176        -0.719114
 H         2.075788         1.911750        -0.958407
 H         2.070659         2.362454         0.791381
 H         4.304085         1.692959         0.453270
 H         4.100334        -0.998391         1.463024
