19
Iteration:  4766
 C         4.495202        -1.287394        -1.363660
 C         3.574389        -0.415909        -0.699131
 O         2.238780        -0.409920        -1.299815
 C         1.444241         0.144060        -0.068757
 C        -0.075256         0.137580        -0.324584
 C         2.193895         1.465525         0.240331
 C         3.556262         0.898047         0.284190
 C         3.312947        -0.529267         0.883386
 O         1.889399        -0.689246         1.054517
 H         5.589038        -1.104876        -1.325284
 H         4.397275        -2.214629        -0.763290
 H         4.193254        -1.449630        -2.433312
 H        -0.556888         0.636451         0.515411
 H        -0.361444         0.414195        -1.341449
 H        -0.193388        -0.992329        -0.279977
 H         2.135399         2.058961        -0.572938
 H         1.942501         1.896223         1.157413
 H         4.505214         1.528923         0.511525
 H         3.966344        -0.883178         1.709814
