19
Iteration:   529
 C         4.624200        -1.079429        -1.428486
 C         3.502517        -0.485317        -0.604182
 O         2.208520        -0.538814        -1.163607
 C         1.408794         0.091306        -0.139821
 C        -0.055201         0.277543        -0.354955
 C         2.228705         1.389850         0.217291
 C         3.567767         0.785489         0.190375
 C         3.274502        -0.589072         0.946683
 O         1.884308        -0.658890         1.027516
 H         5.562125        -1.008503        -0.856063
 H         4.532942        -2.134635        -1.671680
 H         4.736609        -0.537934        -2.351469
 H        -0.601561         0.830811         0.472269
 H        -0.402870         0.882283        -1.209149
 H        -0.627502        -0.711688        -0.457258
 H         2.033081         2.183067        -0.470416
 H         1.997765         1.716143         1.289795
 H         4.433618         1.406164         0.425536
 H         3.923102        -0.906049         1.760841
