19
Iteration:   237charge 0 multiplicity 1
 C         4.683417        -1.132293        -1.339666
 C         3.509144        -0.534985        -0.615762
 O         2.155693        -0.519102        -1.148840
 C         1.438705         0.180879        -0.178162
 C        -0.004507        -0.042261        -0.116082
 C         2.179755         1.510412        -0.109961
 C         3.538722         0.811626         0.097254
 C         3.237219        -0.486450         0.922928
 O         1.879787        -0.549365         1.123255
 H         5.131839        -1.971959        -0.683190
 H         4.328501        -1.526332        -2.340148
 H         5.435398        -0.304307        -1.493579
 H        -0.297849         0.431148         0.846318
 H        -0.618402         0.407279        -0.879875
 H        -0.338941        -1.099294        -0.068144
 H         2.112733         2.165549        -0.973697
 H         1.940243         2.170753         0.782274
 H         4.486740         1.349374         0.330675
 H         3.945933        -0.959680         1.639993
