19
Iteration:  4533
 C         4.587797        -0.975634        -1.459998
 C         3.435388        -0.594861        -0.577812
 O         2.093261        -0.637003        -1.148261
 C         1.467121         0.145463        -0.044523
 C         0.000247         0.183851        -0.345888
 C         2.242092         1.415755         0.026709
 C         3.636907         0.767147         0.199617
 C         3.300145        -0.526372         0.943780
 O         1.893613        -0.589016         1.168793
 H         4.385951        -1.825433        -2.182059
 H         4.821872        -0.103766        -2.232782
 H         5.428461        -1.081648        -0.723431
 H        -0.586303         0.656296         0.468732
 H        -0.119272         0.724884        -1.307839
 H        -0.337632        -0.798692        -0.679016
 H         2.164970         1.907407        -0.888601
 H         1.910852         2.041813         0.875841
 H         4.435824         1.465396         0.478362
 H         3.753430        -1.114804         1.650164
