19
Iteration:  3879
 C         4.689501        -1.098453        -1.316984
 C         3.441203        -0.447521        -0.670314
 O         2.129354        -0.377856        -1.199839
 C         1.437029         0.155554        -0.072359
 C         0.001863         0.379657        -0.396687
 C         2.300945         1.413273         0.270111
 C         3.581464         0.658588         0.310600
 C         3.268415        -0.712388         0.787632
 O         1.812624        -0.786834         1.006629
 H         5.489920        -0.493545        -1.018126
 H         4.520567        -2.152211        -1.088989
 H         4.550871        -0.979339        -2.372292
 H        -0.487916         0.848848         0.467163
 H        -0.155334         1.070738        -1.284450
 H        -0.578728        -0.554512        -0.632716
 H         2.372294         2.140530        -0.486604
 H         2.020338         1.848777         1.235481
 H         4.462005         1.292913         0.517048
 H         3.772376        -1.330187         1.488552
