19
Iteration:  3195charge 0 multiplicity 1
 C         4.605024        -1.114795        -1.375620
 C         3.441844        -0.430259        -0.660823
 O         2.173466        -0.265197        -1.190550
 C         1.467559         0.187759        -0.091964
 C         0.066417         0.304434        -0.347860
 C         2.313064         1.423423         0.243099
 C         3.579200         0.642510         0.378458
 C         3.237346        -0.732695         0.829097
 O         1.772067        -0.796953         0.959496
 H         5.100476        -0.270640        -1.819055
 H         5.057545        -1.628647        -0.581940
 H         4.288068        -1.949891        -2.073356
 H        -0.559513         0.791056         0.437280
 H        -0.274806         1.039047        -1.256816
 H        -0.224454        -0.699511        -0.675117
 H         2.232903         2.001237        -0.692229
 H         2.083092         2.029370         1.181543
 H         4.569086         1.112077         0.640566
 H         3.756319        -1.545463         1.521512
