19
Iteration:  2718charge 0 multiplicity 1
 C         4.579022        -0.973058        -1.495859
 C         3.462092        -0.514176        -0.606674
 O         2.243248        -0.213285        -1.250375
 C         1.492424         0.352653        -0.094976
 C         0.057394         0.434948        -0.545912
 C         2.426950         1.364891         0.491360
 C         3.654474         0.415459         0.652405
 C         3.083339        -0.918599         0.833980
 O         1.648451        -0.765094         0.869482
 H         4.382965        -0.766965        -2.562468
 H         5.581139        -0.593343        -1.223163
 H         4.778029        -2.096194        -1.655019
 H        -0.791726         0.454462         0.192690
 H        -0.259565         1.332960        -1.201309
 H        -0.107294        -0.520229        -1.059072
 H         2.522670         2.126001        -0.206256
 H         2.177080         1.808877         1.395723
 H         4.580573         0.925454         0.851885
 H         3.480284        -1.712936         1.430395
