19
Iteration:   913
 C         4.606270        -1.103462        -1.385372
 C         3.475040        -0.463025        -0.598867
 O         2.263763        -0.196827        -1.351578
 C         1.452461         0.259334        -0.134234
 C         0.008849         0.311524        -0.397300
 C         2.372533         1.412631         0.463488
 C         3.652302         0.583048         0.529071
 C         3.076228        -0.826482         0.821327
 O         1.720000        -0.745199         0.860260
 H         4.881769        -2.123282        -0.958724
 H         4.167485        -1.553607        -2.435115
 H         5.477831        -0.411765        -1.496494
 H        -0.528616         0.588069         0.538862
 H        -0.074450         1.027631        -1.197443
 H        -0.287016        -0.710933        -0.724605
 H         2.420922         2.295075        -0.204011
 H         2.103039         1.693614         1.430135
 H         4.528222         1.141246         0.746677
 H         3.528345        -1.701460         1.256806
