19
Iteration:    42charge 0 multiplicity 1
 C         4.499819        -1.118132        -1.562246
 C         3.596076        -0.544955        -0.504880
 O         2.229590        -0.614747        -1.010205
 C         1.416064         0.106388        -0.093794
 C        -0.106519        -0.161955        -0.171227
 C         2.183283         1.522532        -0.150637
 C         3.573474         0.926408         0.133006
 C         3.346832        -0.359312         0.945488
 O         1.926367        -0.479830         1.115157
 H         5.273797        -0.411559        -1.819645
 H         4.923437        -2.021390        -1.212100
 H         3.855166        -1.373623        -2.363144
 H        -0.497810         0.144109         0.808472
 H        -0.704993         0.389657        -0.964363
 H        -0.283585        -1.245776        -0.240826
 H         2.104657         1.877370        -1.168986
 H         1.943460         2.201179         0.746151
 H         4.519455         1.415504         0.263096
 H         3.955205        -0.661704         1.812517
