19
Iteration:  4047
 C         4.653069        -1.026549        -1.401885
 C         3.397992        -0.505274        -0.625047
 O         2.133712        -0.364486        -1.170996
 C         1.423666         0.169697        -0.032554
 C        -0.010333         0.167078        -0.346222
 C         2.359585         1.412445         0.061139
 C         3.614036         0.677972         0.397709
 C         3.259286        -0.685784         0.822985
 O         1.790922        -0.657699         1.058734
 H         4.342450        -1.656797        -2.285278
 H         5.225152        -0.192743        -1.782976
 H         5.134015        -1.781788        -0.777738
 H        -0.685809         0.623959         0.475512
 H        -0.167609         0.815514        -1.242256
 H        -0.430854        -0.849375        -0.516246
 H         2.561827         1.898077        -0.957362
 H         2.238930         2.163740         0.838837
 H         4.491834         1.325811         0.681061
 H         3.807234        -1.258594         1.534100
