19
Iteration:  4940charge 0 multiplicity 1
 C         4.483833        -1.297866        -1.386044
 C         3.500948        -0.472148        -0.638773
 O         2.243317        -0.421934        -1.138084
 C         1.454248         0.201858        -0.100235
 C        -0.015693        -0.068133        -0.400972
 C         2.215257         1.551578         0.195035
 C         3.578052         0.846972         0.219886
 C         3.256793        -0.515139         0.812534
 O         1.894026        -0.544994         1.124554
 H         5.458608        -1.299332        -0.888754
 H         4.224353        -2.271937        -1.647886
 H         4.665151        -0.811496        -2.331311
 H        -0.524833         0.517083         0.326577
 H        -0.217825         0.305701        -1.368506
 H        -0.173048        -1.107013        -0.266234
 H         1.984066         2.357316        -0.506892
 H         2.019680         2.000364         1.214129
 H         4.466866         1.252163         0.532166
 H         3.905314        -1.179430         1.418816
