19
Iteration:  3384
 C         4.506897        -1.155056        -1.547343
 C         3.526926        -0.529513        -0.636240
 O         2.224674        -0.401712        -1.186087
 C         1.442597         0.273486        -0.182390
 C         0.024298         0.103189        -0.405196
 C         2.340369         1.505910         0.330094
 C         3.655987         0.723211         0.328877
 C         3.165139        -0.661465         0.918141
 O         1.738478        -0.614434         1.080383
 H         5.195864        -1.803038        -0.956205
 H         4.055592        -1.552022        -2.467388
 H         5.281387        -0.568264        -1.976414
 H        -0.476908         0.649473         0.496486
 H        -0.499700         0.711392        -1.207885
 H        -0.082928        -1.081821        -0.649048
 H         2.315576         2.426718        -0.377971
 H         2.113936         1.771315         1.446757
 H         4.689465         1.101254         0.592332
 H         3.731597        -1.260987         1.799158
