19
Iteration:  2168
 C         4.700090        -1.080874        -1.462797
 C         3.574633        -0.545856        -0.613567
 O         2.305000        -0.047447        -1.304390
 C         1.515055         0.367852        -0.126247
 C         0.009624         0.557076        -0.471606
 C         2.389114         1.351383         0.628498
 C         3.637239         0.358452         0.634932
 C         2.882041        -1.006228         0.745413
 O         1.606658        -0.755103         0.768929
 H         4.687550        -0.625053        -2.504869
 H         5.722738        -0.818318        -1.167342
 H         4.589418        -2.177273        -1.603600
 H        -0.449189         0.594504         0.492234
 H        -0.096334         1.307117        -1.207529
 H        -0.257500        -0.371610        -0.870885
 H         2.607982         2.274788         0.223886
 H         1.978764         1.281888         1.588523
 H         4.595084         0.612565         1.064339
 H         3.219589        -2.001230         1.206934
