19
Iteration:   175
 C         4.501611        -1.111225        -1.431410
 C         3.421172        -0.451491        -0.583782
 O         2.130613        -0.554036        -1.072678
 C         1.432136         0.117679         0.112117
 C         0.064697        -0.088477        -0.378136
 C         2.134427         1.490648        -0.061469
 C         3.571159         0.920524         0.043667
 C         3.389663        -0.486897         0.918076
 O         1.959831        -0.562479         1.227922
 H         4.115640        -1.892393        -2.048827
 H         5.046014        -0.410409        -2.006666
 H         5.203678        -1.569554        -0.781185
 H        -0.661214         0.367127         0.338604
 H         0.051886         0.451543        -1.297900
 H        -0.064946        -1.188852        -0.505305
 H         2.021767         1.630600        -1.180335
 H         1.959872         2.406736         0.472516
 H         4.394622         1.700397         0.088817
 H         3.991831        -1.068950         1.704894
