19
Iteration:  4152charge 0 multiplicity 1
 C         4.593266        -1.193904        -1.343833
 C         3.495564        -0.423155        -0.662963
 O         2.157529        -0.344840        -1.274385
 C         1.449571         0.187603        -0.088631
 C        -0.027136         0.072388        -0.296750
 C         2.318746         1.513203         0.192760
 C         3.587708         0.735731         0.283174
 C         3.287430        -0.643334         0.845833
 O         1.778827        -0.638470         1.054263
 H         5.008287        -0.655925        -2.171799
 H         5.280971        -1.527278        -0.548402
 H         4.253648        -2.167756        -1.631499
 H        -0.525318         0.557703         0.535284
 H        -0.387906         0.553242        -1.185750
 H        -0.360950        -0.948423        -0.511503
 H         2.389761         2.258780        -0.557037
 H         2.116752         2.008778         1.200552
 H         4.593359         1.205540         0.406174
 H         3.868995        -1.278024         1.506634
