19
Iteration:  4880charge 0 multiplicity 1
 C         4.669288        -1.133908        -1.455355
 C         3.526680        -0.411520        -0.598594
 O         2.179498        -0.581100        -1.176017
 C         1.451583         0.116536        -0.070259
 C         0.009898         0.213933        -0.210996
 C         2.186093         1.431913        -0.005906
 C         3.547167         0.827870         0.265327
 C         3.224765        -0.564771         0.938229
 O         1.865368        -0.639548         1.067026
 H         5.342485        -1.695087        -0.780999
 H         4.210587        -1.840408        -2.164271
 H         5.288669        -0.335154        -1.868853
 H        -0.508405         0.583923         0.716656
 H        -0.449990         0.781180        -1.063418
 H        -0.458681        -0.744955        -0.469330
 H         2.087181         1.687368        -1.085270
 H         1.865546         2.119478         0.765443
 H         4.445906         1.432100         0.336780
 H         3.760450        -0.973285         1.691986
