19
Iteration:  2651charge 0 multiplicity 1
 C         4.644889        -1.087341        -1.399723
 C         3.495644        -0.409228        -0.658585
 O         2.262699        -0.182531        -1.290718
 C         1.430974         0.218940        -0.083225
 C        -0.002612         0.492963        -0.470463
 C         2.389805         1.357919         0.479081
 C         3.605906         0.541375         0.542192
 C         3.134709        -0.892606         0.740061
 O         1.667059        -0.886481         0.894549
 H         5.359209        -0.225143        -1.691399
 H         5.208653        -1.555522        -0.614582
 H         4.281747        -1.845474        -2.242093
 H        -0.541431         1.039497         0.413904
 H         0.061458         1.469257        -1.120546
 H        -0.639662        -0.435238        -0.719035
 H         2.414937         2.112451        -0.248371
 H         1.996870         1.856339         1.329473
 H         4.518905         0.946085         0.914959
 H         3.751174        -1.679339         1.196253
