19
Iteration:   528
 C         4.620169        -1.075109        -1.424376
 C         3.502150        -0.478970        -0.601017
 O         2.207911        -0.535295        -1.167674
 C         1.409477         0.087584        -0.137139
 C        -0.057751         0.274484        -0.355859
 C         2.231319         1.395088         0.203644
 C         3.570247         0.785110         0.190955
 C         3.278076        -0.594461         0.953809
 O         1.880367        -0.660942         1.032441
 H         5.562363        -1.068013        -0.861134
 H         4.542615        -2.137325        -1.674909
 H         4.758681        -0.500254        -2.355039
 H        -0.580850         0.827770         0.490549
 H        -0.386506         0.869595        -1.209773
 H        -0.650169        -0.706710        -0.447094
 H         2.043051         2.183750        -0.448552
 H         1.983131         1.725263         1.266753
 H         4.422206         1.386948         0.413412
 H         3.936393        -0.924680         1.707474
