19
Iteration:  1354
 C         4.622478        -1.062057        -1.375596
 C         3.519147        -0.439938        -0.594177
 O         2.348891         0.038651        -1.264948
 C         1.484747         0.269397        -0.096756
 C         0.115673         0.707541        -0.425741
 C         2.351408         1.327574         0.568417
 C         3.545442         0.337342         0.737019
 C         3.022302        -1.099801         0.658729
 O         1.604504        -0.944000         0.635919
 H         4.008195        -1.996384        -1.684468
 H         5.019883        -0.617912        -2.228695
 H         5.487972        -1.387854        -0.767641
 H        -0.274863         1.006970         0.527115
 H         0.282013         1.606009        -0.912500
 H        -0.431222         0.098435        -1.165516
 H         2.442953         2.084580        -0.301293
 H         1.907900         1.775545         1.502774
 H         4.565774         0.616036         0.998857
 H         3.482259        -1.932098         1.102602
