19
Iteration:  1898charge 0 multiplicity 1
 C         4.628189        -1.024079        -1.369098
 C         3.507724        -0.386928        -0.576518
 O         2.252277        -0.102067        -1.275606
 C         1.470949         0.181910        -0.186059
 C         0.134830         0.735427        -0.388609
 C         2.386092         1.344848         0.514168
 C         3.611506         0.437198         0.718326
 C         3.016754        -0.997939         0.687635
 O         1.600493        -1.025212         0.665861
 H         4.228859        -1.396776        -2.365580
 H         5.498391        -0.467647        -1.533670
 H         4.918458        -1.981482        -0.871375
 H        -0.321785         0.955372         0.620464
 H         0.432265         1.746677        -0.861995
 H        -0.528023         0.079823        -1.042936
 H         2.547709         2.103656        -0.235004
 H         2.129880         1.982989         1.389580
 H         4.582553         0.533378         1.267234
 H         3.469624        -1.763410         1.256961
