19
Iteration:  2924charge 0 multiplicity 1
 C         4.681024        -1.153258        -1.394575
 C         3.520148        -0.494512        -0.620796
 O         2.170729        -0.176009        -1.248418
 C         1.483472         0.305874        -0.229191
 C        -0.031862         0.429821        -0.393967
 C         2.320480         1.386737         0.511221
 C         3.679223         0.552954         0.467024
 C         3.118937        -0.843603         0.760930
 O         1.699872        -0.821944         0.848261
 H         5.507983        -0.596181        -0.991533
 H         4.599024        -2.186589        -1.055021
 H         4.671352        -0.698593        -2.443349
 H        -0.451350         0.706819         0.551147
 H        -0.196504         1.181006        -1.241728
 H        -0.361993        -0.540329        -0.681179
 H         2.385626         2.394959         0.041166
 H         2.012965         1.502182         1.597248
 H         4.777574         0.841727         0.665440
 H         3.546964        -1.597124         1.419899
