19
Iteration:  3175
 C         4.661276        -1.026577        -1.425054
 C         3.499541        -0.463179        -0.572610
 O         2.222201        -0.355866        -1.288640
 C         1.440189         0.202342        -0.117525
 C        -0.069890         0.314468        -0.283405
 C         2.373564         1.432900         0.213437
 C         3.644109         0.643747         0.455656
 C         3.131947        -0.771087         0.828605
 O         1.747677        -0.764381         0.950862
 H         4.797783        -0.376653        -2.272169
 H         5.505319        -1.336835        -0.813845
 H         4.298347        -2.057381        -1.685758
 H        -0.396746         0.850198         0.664696
 H        -0.215340         1.027981        -1.206057
 H        -0.641754        -0.607034        -0.524553
 H         2.335276         2.098322        -0.698150
 H         1.937909         1.992437         1.169007
 H         4.661869         1.054569         0.745313
 H         3.713743        -1.467241         1.511819
