19
Iteration:  1495
 C         4.647907        -1.108915        -1.304632
 C         3.422804        -0.500308        -0.638694
 O         2.349848         0.059012        -1.225314
 C         1.508120         0.400368        -0.035006
 C         0.006032         0.635785        -0.479692
 C         2.600251         1.324901         0.627709
 C         3.619034         0.276093         0.682523
 C         2.964837        -1.068977         0.604665
 O         1.500500        -0.873625         0.589208
 H         5.486084        -0.839144        -0.590212
 H         4.668216        -2.111222        -1.519858
 H         4.694252        -0.507201        -2.204290
 H        -0.704451         0.731178         0.350817
 H        -0.159202         1.516134        -1.056554
 H        -0.268729        -0.191930        -1.212844
 H         2.853812         2.180922        -0.169648
 H         2.226490         1.651463         1.651568
 H         4.569270         0.382490         1.160015
 H         3.476442        -2.033114         0.953580
