19
Iteration:  2570
 C         4.532416        -0.987605        -1.553646
 C         3.484902        -0.520407        -0.562558
 O         2.274517        -0.206959        -1.200260
 C         1.509223         0.221865        -0.109404
 C         0.105789         0.545594        -0.577662
 C         2.349022         1.399956         0.457971
 C         3.627815         0.543072         0.587555
 C         3.097054        -0.847348         0.862181
 O         1.671319        -0.945099         0.920122
 H         5.111720        -0.239848        -2.100293
 H         5.310522        -1.655865        -0.971283
 H         4.189176        -1.658893        -2.369626
 H        -0.455262         0.752298         0.297700
 H        -0.005241         1.242282        -1.337459
 H        -0.434989        -0.256461        -0.995068
 H         2.210829         2.150405        -0.410435
 H         1.951311         1.734964         1.476577
 H         4.597630         0.909543         0.868635
 H         3.598664        -1.563383         1.453053
