19
Iteration:  2409
 C         4.557571        -0.944720        -1.599847
 C         3.496796        -0.591986        -0.579375
 O         2.342876        -0.168325        -1.253939
 C         1.484879         0.274878        -0.118052
 C         0.029441         0.527545        -0.567420
 C         2.401253         1.321148         0.512495
 C         3.650434         0.458597         0.687804
 C         3.060762        -0.930417         0.930822
 O         1.606422        -0.794810         0.833792
 H         4.179228        -1.840380        -2.055610
 H         4.561915        -0.137962        -2.192038
 H         5.541422        -1.215146        -1.245463
 H        -0.545323         0.792346         0.361635
 H         0.070508         1.314641        -1.369745
 H        -0.310666        -0.452159        -1.104921
 H         2.704046         2.116351        -0.077995
 H         2.032359         1.676048         1.429848
 H         4.607187         0.879479         1.006594
 H         3.477634        -1.856184         1.451645
