19
Iteration:  3331
 C         4.613440        -1.104787        -1.376637
 C         3.513817        -0.442101        -0.655743
 O         2.154788        -0.389591        -1.221619
 C         1.447057         0.187467        -0.108319
 C        -0.023977         0.335451        -0.331109
 C         2.251346         1.430019         0.209161
 C         3.611867         0.710541         0.350093
 C         3.225686        -0.668721         0.854108
 O         1.818460        -0.816591         1.009072
 H         5.612963        -1.305165        -1.015997
 H         4.295184        -2.210404        -1.513180
 H         4.805583        -0.718653        -2.342493
 H        -0.354390         0.973372         0.556612
 H        -0.076308         1.099043        -1.107866
 H        -0.379025        -0.719384        -0.461074
 H         2.368906         2.259787        -0.597132
 H         1.930091         1.944072         1.186608
 H         4.541671         1.311972         0.468622
 H         3.692751        -1.465579         1.605730
