19
Iteration:  1677
 C         4.625068        -1.077326        -1.435481
 C         3.486475        -0.450061        -0.626268
 O         2.269959        -0.070347        -1.257635
 C         1.469784         0.283640        -0.029739
 C         0.139787         0.733963        -0.627807
 C         2.441703         1.357962         0.770720
 C         3.568492         0.431474         0.650865
 C         3.003521        -1.051950         0.716371
 O         1.579194        -0.988627         0.704899
 H         4.836418        -2.145244        -1.254991
 H         4.263326        -1.126478        -2.527340
 H         5.536890        -0.475039        -1.495249
 H        -0.665346         1.020819         0.071267
 H         0.421430         1.637922        -1.205634
 H        -0.084624        -0.021710        -1.459364
 H         2.562537         2.245658         0.160201
 H         2.274230         1.592921         1.839647
 H         4.501273         0.552948         1.261638
 H         3.622009        -1.825903         1.104368
