19
Iteration:  4383
 C         4.565560        -1.034725        -1.567075
 C         3.527705        -0.538740        -0.527365
 O         2.132221        -0.582405        -1.126122
 C         1.474834         0.102207        -0.095928
 C        -0.030899         0.135624        -0.301001
 C         2.291839         1.510458        -0.027240
 C         3.653618         0.820960         0.345844
 C         3.208375        -0.578538         0.969104
 O         1.806396        -0.625634         1.107153
 H         4.772063        -2.105666        -1.589145
 H         4.328414        -0.571529        -2.536127
 H         5.525708        -0.711638        -1.337729
 H        -0.473092         0.676119         0.577442
 H        -0.033200         0.826190        -1.194854
 H        -0.377506        -0.914110        -0.418503
 H         2.435779         1.980525        -0.983370
 H         1.805438         2.080789         0.867476
 H         4.609754         1.355549         0.319445
 H         3.776570        -1.052781         1.732867
