19
Iteration:  3927
 C         4.584831        -1.026809        -1.596220
 C         3.542338        -0.556478        -0.508333
 O         2.237502        -0.457223        -1.217756
 C         1.488847         0.213073        -0.264306
 C         0.009473         0.229009        -0.357470
 C         2.314614         1.419559         0.205946
 C         3.645369         0.659599         0.424216
 C         3.135106        -0.682063         0.955435
 O         1.731841        -0.606188         1.052049
 H         5.462354        -1.342664        -0.978962
 H         4.072248        -1.725304        -2.161130
 H         4.910598        -0.114796        -2.129984
 H        -0.395032         0.640282         0.684396
 H        -0.423054         0.937398        -1.102745
 H        -0.496259        -0.775288        -0.556629
 H         2.281834         2.303521        -0.539731
 H         1.886218         1.710142         1.209894
 H         4.643194         0.957806         0.843883
 H         3.588054        -1.400664         1.747874
