19
Iteration:  1040
 C         4.595261        -1.078437        -1.395644
 C         3.478470        -0.409774        -0.627706
 O         2.268842        -0.071628        -1.226592
 C         1.457248         0.262720        -0.125827
 C         0.025315         0.353153        -0.428984
 C         2.487189         1.458515         0.431905
 C         3.633758         0.428880         0.702070
 C         3.051185        -0.929486         0.713857
 O         1.643931        -0.811557         0.791094
 H         4.580266        -0.741078        -2.450363
 H         5.514918        -0.769098        -1.034034
 H         4.609226        -2.169494        -1.442443
 H        -0.560284         0.677184         0.460704
 H        -0.097411         0.985643        -1.379689
 H        -0.305287        -0.647171        -0.699631
 H         2.742133         2.072122        -0.480745
 H         1.951967         2.114127         1.247679
 H         4.620727         0.693792         1.029632
 H         3.278335        -1.856838         1.157855
