19
Iteration:  3816
 C         4.443550        -1.118619        -1.422777
 C         3.495557        -0.430922        -0.610595
 O         2.228447        -0.248594        -1.256296
 C         1.455216         0.178930         0.014206
 C         0.033490         0.135686        -0.446420
 C         2.352743         1.469251         0.142757
 C         3.648650         0.712868         0.497972
 C         3.217314        -0.712968         0.883018
 O         1.759351        -0.749380         1.017610
 H         5.550794        -1.023917        -1.340952
 H         4.302020        -2.157466        -1.511037
 H         4.279066        -0.763397        -2.444505
 H        -0.552986         0.447185         0.468354
 H         0.069669         0.929097        -1.262366
 H        -0.349170        -0.923854        -0.588893
 H         2.569798         1.942024        -0.814879
 H         2.005827         2.305585         0.912894
 H         4.573590         1.172008         0.917946
 H         3.671047        -1.517380         1.468715
