19
Iteration:   293charge 0 multiplicity 1
 C         4.582484        -1.186307        -1.476562
 C         3.555440        -0.541564        -0.547951
 O         2.195261        -0.602608        -1.183936
 C         1.472550         0.073823        -0.126602
 C         0.030337         0.040902        -0.311625
 C         2.131030         1.493955         0.109559
 C         3.531370         0.921752         0.097709
 C         3.251619        -0.412432         0.929907
 O         1.884939        -0.564358         1.181394
 H         5.604282        -0.671872        -1.292771
 H         4.602668        -2.308139        -1.316195
 H         4.207121        -0.971108        -2.508093
 H        -0.377826         0.804950         0.400768
 H        -0.180574         0.505020        -1.251735
 H        -0.388483        -0.958289        -0.096403
 H         1.866773         2.260610        -0.644137
 H         1.996887         1.759496         1.158097
 H         4.466490         1.389077         0.404701
 H         3.948195        -0.575152         1.775132
