19
Iteration:  3672
 C         4.488170        -1.157354        -1.416365
 C         3.501578        -0.420466        -0.617411
 O         2.197876        -0.383424        -1.133219
 C         1.432765         0.147289         0.012646
 C        -0.001131         0.215192        -0.501473
 C         2.303321         1.490813         0.235767
 C         3.578491         0.757921         0.302471
 C         3.256591        -0.656762         0.840061
 O         1.847087        -0.728279         1.061132
 H         4.918788        -2.011680        -0.951752
 H         4.002908        -1.470688        -2.339167
 H         5.351415        -0.716734        -1.738170
 H        -0.730809         0.524814         0.292016
 H         0.109676         0.871627        -1.445919
 H        -0.275605        -0.861388        -0.738232
 H         2.482799         2.178513        -0.640052
 H         2.045015         2.051825         1.200443
 H         4.474443         1.211242         0.538499
 H         3.867179        -1.259334         1.395695
