19
Iteration:  3097charge 0 multiplicity 1
 C         4.567638        -1.148359        -1.522152
 C         3.492660        -0.477896        -0.615867
 O         2.166663        -0.272678        -1.200047
 C         1.492761         0.220525        -0.094051
 C         0.088135         0.325527        -0.494147
 C         2.321650         1.456077         0.381360
 C         3.652909         0.675186         0.495025
 C         3.153077        -0.738000         0.829470
 O         1.741822        -0.812420         0.972706
 H         4.020777        -1.522287        -2.363301
 H         5.272201        -0.397037        -1.753472
 H         5.048361        -1.973316        -0.933649
 H        -0.567616         0.598923         0.334419
 H        -0.198268         1.103050        -1.240754
 H        -0.124170        -0.714828        -0.737380
 H         2.352234         2.301355        -0.364762
 H         1.818530         1.799294         1.373519
 H         4.570539         1.078865         0.786537
 H         3.728592        -1.420578         1.459705
