19
Iteration:  4673charge 0 multiplicity 1
 C         4.506467        -0.975955        -1.505059
 C         3.468164        -0.496644        -0.593966
 O         2.190959        -0.593739        -1.086455
 C         1.493605         0.067647        -0.078257
 C        -0.024892         0.198996        -0.324094
 C         2.300395         1.468262        -0.026155
 C         3.547368         0.789127         0.298411
 C         3.229009        -0.550846         1.027409
 O         1.877261        -0.646154         1.084215
 H         5.088267        -1.750442        -1.016468
 H         4.266318        -1.717632        -2.306440
 H         5.232162        -0.247866        -1.929728
 H        -0.464453         0.580840         0.592691
 H        -0.054274         0.848089        -1.203543
 H        -0.340910        -0.764075        -0.657510
 H         2.313835         1.876157        -1.176814
 H         1.952355         2.303387         0.722468
 H         4.580049         1.223652         0.384628
 H         3.775996        -1.276165         1.739440
