19
Iteration:  2878
 C         4.648332        -1.047592        -1.493367
 C         3.549089        -0.466639        -0.572090
 O         2.257931        -0.221335        -1.201132
 C         1.496766         0.208912        -0.133187
 C         0.004980         0.538229        -0.420476
 C         2.359413         1.387930         0.344844
 C         3.593155         0.550719         0.569077
 C         3.069168        -0.878844         0.853337
 O         1.666298        -0.909100         0.836941
 H         5.483495        -0.315707        -1.655967
 H         4.864264        -1.954577        -0.975190
 H         4.213780        -1.091267        -2.551916
 H        -0.304737         0.691782         0.604381
 H        -0.085147         1.439846        -1.026965
 H        -0.546986        -0.346288        -0.754749
 H         2.507780         2.144296        -0.531106
 H         1.923494         1.948492         1.273688
 H         4.519879         0.994153         0.977447
 H         3.666554        -1.695210         1.365663
