19
Iteration:  2227
 C         4.680897        -1.040579        -1.457082
 C         3.506705        -0.490293        -0.616427
 O         2.318103        -0.170609        -1.282548
 C         1.480818         0.218500        -0.118097
 C         0.076673         0.718052        -0.494497
 C         2.369303         1.255537         0.601595
 C         3.559324         0.426540         0.597717
 C         3.040593        -0.932022         0.751254
 O         1.621870        -0.869822         0.777556
 H         5.469402        -0.272602        -1.647822
 H         5.055468        -1.984331        -0.971259
 H         4.372382        -1.402774        -2.505523
 H        -0.418497         1.060787         0.404642
 H         0.044427         1.632878        -1.006424
 H        -0.663501         0.043553        -0.944358
 H         2.492791         2.259872         0.071229
 H         1.950512         1.528228         1.644744
 H         4.394962         0.872604         1.136837
 H         3.373049        -1.719093         1.392056
