19
Iteration:  4818charge 0 multiplicity 1
 C         4.562594        -1.075816        -1.449048
 C         3.504373        -0.484611        -0.640117
 O         2.085991        -0.458047        -1.163851
 C         1.448351         0.084933        -0.057845
 C        -0.037135         0.066199        -0.364087
 C         2.330058         1.468651         0.018136
 C         3.630868         0.764518         0.293504
 C         3.231260        -0.534623         0.947415
 O         1.847345        -0.617986         1.156916
 H         5.542967        -0.848991        -1.000042
 H         4.594304        -2.215633        -1.532125
 H         4.556409        -0.644606        -2.431746
 H        -0.546373         0.471904         0.467629
 H        -0.061714         0.721533        -1.197754
 H        -0.309909        -0.948295        -0.601670
 H         2.252240         2.107602        -0.927735
 H         2.072227         2.189236         0.905318
 H         4.634331         1.169295         0.604302
 H         3.965496        -1.008798         1.536833
