19
Iteration:  2640
 C         4.662786        -1.096614        -1.328720
 C         3.459872        -0.470664        -0.672836
 O         2.295595        -0.165234        -1.347370
 C         1.454976         0.227239        -0.034621
 C         0.010761         0.509273        -0.371930
 C         2.306138         1.354181         0.510396
 C         3.672595         0.561161         0.488127
 C         3.116607        -0.867297         0.710911
 O         1.643888        -0.815775         0.846316
 H         5.417206        -0.324517        -1.759886
 H         5.156877        -1.803181        -0.692367
 H         4.560733        -1.696826        -2.346765
 H        -0.627657         0.830945         0.538520
 H        -0.195722         1.002095        -1.423332
 H        -0.409747        -0.527523        -0.747387
 H         2.439284         2.121965        -0.176847
 H         1.992080         1.635667         1.495593
 H         4.620704         0.854980         0.913601
 H         3.489371        -1.751067         1.271203
