19
Iteration:    96charge 0 multiplicity 1
 C         4.640687        -1.114896        -1.305522
 C         3.496548        -0.377927        -0.662783
 O         2.054772        -0.597622        -1.049894
 C         1.414008         0.078029         0.040544
 C        -0.160664         0.052494        -0.210062
 C         2.120681         1.395463        -0.121914
 C         3.549551         0.975308         0.036083
 C         3.438229        -0.397379         0.903973
 O         2.079610        -0.715670         1.142196
 H         5.003510        -0.604817        -2.251380
 H         5.444114        -1.100966        -0.568181
 H         4.302082        -2.118179        -1.550648
 H        -0.782132         0.664434         0.463349
 H        -0.201098         0.478018        -1.264382
 H        -0.444238        -1.016083        -0.278825
 H         1.967306         1.815309        -1.097566
 H         1.802409         2.315893         0.510544
 H         4.371328         1.569592        -0.272290
 H         4.087015        -1.078925         1.363146
