19
Iteration:  2602charge 0 multiplicity 1
 C         4.606962        -1.055929        -1.427418
 C         3.497930        -0.457819        -0.609284
 O         2.319183        -0.182972        -1.340473
 C         1.457934         0.270258        -0.136620
 C        -0.024313         0.395851        -0.386738
 C         2.421456         1.401229         0.442741
 C         3.665114         0.512171         0.670274
 C         3.058439        -0.861381         0.762433
 O         1.659982        -0.826734         0.806264
 H         5.381908        -0.334737        -1.700598
 H         5.006580        -1.902641        -0.768052
 H         4.114146        -1.412189        -2.318187
 H        -0.539340         0.800697         0.449565
 H        -0.359174         1.020067        -1.142873
 H        -0.273595        -0.626053        -0.445609
 H         2.433595         2.314837        -0.308110
 H         1.993343         1.960227         1.351184
 H         4.613545         0.848461         1.071959
 H         3.444769        -1.716919         1.241780
