19
Iteration:  4886charge 0 multiplicity 1
 C         4.632481        -1.133909        -1.396370
 C         3.565720        -0.433265        -0.585218
 O         2.174063        -0.531784        -1.164617
 C         1.451046         0.103515        -0.062197
 C        -0.037797         0.170330        -0.206547
 C         2.204372         1.469541        -0.045357
 C         3.532900         0.868875         0.241995
 C         3.266702        -0.609988         0.889643
 O         1.865992        -0.639833         1.065034
 H         5.269327        -1.851963        -0.852762
 H         4.146706        -1.811789        -2.097434
 H         5.214734        -0.368622        -2.028573
 H        -0.541784         0.573031         0.667943
 H        -0.231383         0.774868        -1.111998
 H        -0.390503        -0.856381        -0.426088
 H         2.086189         1.893870        -1.043311
 H         1.826964         2.160378         0.747256
 H         4.466921         1.332986         0.572481
 H         3.813552        -1.073828         1.817612
