19
Iteration:  3004
 C         4.671842        -1.027436        -1.541935
 C         3.515106        -0.513934        -0.619846
 O         2.182940        -0.331856        -1.227756
 C         1.494584         0.203691        -0.167424
 C         0.045576         0.472386        -0.479791
 C         2.324521         1.409379         0.423060
 C         3.579501         0.574526         0.501143
 C         3.126588        -0.869235         0.881935
 O         1.713740        -0.759647         0.964571
 H         5.079998        -2.005517        -1.196751
 H         4.247101        -1.095822        -2.639094
 H         5.391742        -0.204783        -1.656998
 H        -0.382329         0.900781         0.467542
 H        -0.026320         1.327290        -1.136724
 H        -0.444035        -0.513370        -0.728409
 H         2.356149         2.317260        -0.108618
 H         1.887980         1.563654         1.353789
 H         4.575435         0.878770         0.793861
 H         3.555263        -1.454314         1.772682
