19
Iteration:  2805
 C         4.544308        -1.058068        -1.448028
 C         3.466898        -0.487363        -0.607307
 O         2.273968        -0.135811        -1.227904
 C         1.500832         0.225227        -0.093772
 C         0.032337         0.446425        -0.487159
 C         2.360461         1.370298         0.466706
 C         3.658265         0.532657         0.586466
 C         3.113236        -0.895554         0.836024
 O         1.670263        -0.825898         0.786584
 H         4.418473        -0.606008        -2.384810
 H         5.429267        -0.816348        -0.861228
 H         4.369954        -2.140496        -1.670021
 H        -0.405921         0.848057         0.413570
 H         0.245015         1.158611        -1.329034
 H        -0.451717        -0.395778        -0.925830
 H         2.505919         2.051846        -0.293266
 H         2.140391         1.795758         1.381280
 H         4.676437         0.913452         0.939917
 H         3.528113        -1.776058         1.430286
