19
Iteration:  4639charge 0 multiplicity 1
 C         4.565992        -1.244311        -1.490102
 C         3.494451        -0.499881        -0.608897
 O         2.212029        -0.460820        -1.171234
 C         1.451178         0.176725        -0.142606
 C        -0.004900         0.091906        -0.387601
 C         2.211816         1.501755         0.188047
 C         3.519703         0.808495         0.207109
 C         3.264326        -0.528998         0.963526
 O         1.923783        -0.591828         1.143046
 H         4.933627        -1.877081        -0.704580
 H         4.081604        -1.550910        -2.388920
 H         5.490736        -0.579312        -1.735638
 H        -0.623732         0.452398         0.428296
 H        -0.386494         0.619501        -1.258122
 H        -0.336075        -0.979288        -0.441719
 H         1.983507         2.344082        -0.682894
 H         1.939539         1.787349         1.262091
 H         4.497866         1.315821         0.339963
 H         3.904973        -1.106412         1.562106
