19
Iteration:  3722charge 0 multiplicity 1
 C         4.554332        -1.096754        -1.387136
 C         3.491338        -0.486679        -0.627922
 O         2.256264        -0.411060        -1.254522
 C         1.454326         0.218257        -0.106252
 C        -0.067876         0.204405        -0.256520
 C         2.341282         1.527166         0.129640
 C         3.670481         0.735589         0.406250
 C         3.162735        -0.690346         0.871665
 O         1.760188        -0.733095         0.963058
 H         5.075659        -1.999496        -0.968769
 H         4.324777        -1.549564        -2.428807
 H         5.476629        -0.408688        -1.598565
 H        -0.475650         0.585730         0.693932
 H        -0.350971         0.806071        -1.075824
 H        -0.466331        -0.775159        -0.156236
 H         2.258959         2.103161        -0.812954
 H         1.946272         2.064013         0.938788
 H         4.585544         1.049939         0.840100
 H         3.765431        -1.259802         1.550192
