19
Iteration:  3811
 C         4.488513        -1.122170        -1.447005
 C         3.466724        -0.458106        -0.548214
 O         2.228032        -0.267973        -1.236658
 C         1.470548         0.189441         0.007864
 C         0.036413         0.136157        -0.467853
 C         2.362604         1.466768         0.179236
 C         3.622455         0.700581         0.469679
 C         3.189348        -0.706342         0.828884
 O         1.768382        -0.729089         1.049493
 H         5.532789        -0.850822        -1.260965
 H         4.014354        -2.203344        -1.637236
 H         4.420838        -0.645163        -2.451479
 H        -0.525392         0.457690         0.397308
 H         0.029128         0.889914        -1.256915
 H        -0.370877        -0.842841        -0.682186
 H         2.517718         1.937374        -0.807768
 H         2.111451         2.167271         0.894184
 H         4.532118         1.263045         0.824060
 H         3.838929        -1.445303         1.392297
