19
Iteration:  1350charge 0 multiplicity 1
 C         4.628411        -1.080669        -1.408082
 C         3.517099        -0.388177        -0.578137
 O         2.340689         0.011023        -1.270039
 C         1.491955         0.260973        -0.097758
 C         0.112138         0.741027        -0.437840
 C         2.361098         1.329950         0.556893
 C         3.547137         0.342547         0.758280
 C         3.027802        -1.108490         0.673526
 O         1.612729        -0.973957         0.644676
 H         3.977893        -1.829068        -1.772504
 H         5.148281        -0.605329        -2.279334
 H         5.323670        -1.438358        -0.645505
 H        -0.372710         0.992819         0.545421
 H         0.250563         1.795594        -0.944527
 H        -0.456004         0.133654        -1.124529
 H         2.406221         2.062232        -0.330340
 H         1.745481         1.715802         1.440864
 H         4.607917         0.587618         0.979273
 H         3.567936        -1.928015         1.203949
