19
Iteration:  1942charge 0 multiplicity 1
 C         4.665764        -1.026368        -1.433912
 C         3.511570        -0.524234        -0.646432
 O         2.279698        -0.030851        -1.325592
 C         1.585165         0.347589        -0.166242
 C         0.074183         0.539624        -0.480915
 C         2.507201         1.311452         0.619716
 C         3.607247         0.317257         0.695216
 C         2.910997        -1.039487         0.701297
 O         1.525384        -0.758939         0.790513
 H         4.321583        -1.943261        -1.976083
 H         4.905236        -0.266655        -2.068731
 H         5.532822        -1.173620        -0.785967
 H        -0.500852         0.661972         0.483027
 H        -0.150442         1.445700        -1.090795
 H        -0.341122        -0.427685        -0.943549
 H         2.776713         2.307893         0.300096
 H         1.911019         1.466354         1.548742
 H         4.614278         0.536657         1.104237
 H         3.381551        -1.827233         1.191568
