19
Iteration:   963charge 0 multiplicity 1
 C         4.540673        -0.962416        -1.427862
 C         3.469640        -0.498623        -0.529429
 O         2.234206        -0.212113        -1.241458
 C         1.468166         0.173282        -0.087422
 C         0.056787         0.487015        -0.500932
 C         2.428002         1.383468         0.356120
 C         3.655590         0.529184         0.556468
 C         3.111308        -0.890392         0.865631
 O         1.676796        -0.864723         0.846054
 H         5.519976        -0.565764        -1.172519
 H         4.694381        -1.953616        -1.397410
 H         4.227155        -0.605113        -2.407555
 H        -0.450100         0.709057         0.438995
 H         0.192448         1.385779        -1.190731
 H        -0.479550        -0.312020        -0.990671
 H         2.387046         1.952472        -0.588045
 H         1.831860         1.953391         1.193052
 H         4.719212         0.837986         0.826001
 H         3.699533        -1.589037         1.503469
