19
Iteration:  3466
 C         4.659636        -1.106433        -1.448601
 C         3.455713        -0.508561        -0.597849
 O         2.236433        -0.473968        -1.251895
 C         1.491103         0.183348        -0.242894
 C        -0.044622         0.323787        -0.254983
 C         2.310210         1.428831         0.226971
 C         3.566136         0.680987         0.308828
 C         3.193075        -0.656170         0.874981
 O         1.774603        -0.650529         1.031706
 H         5.456442        -1.358302        -0.720623
 H         4.358329        -2.153568        -1.722582
 H         4.911903        -0.188989        -2.081623
 H        -0.408754         0.648701         0.697774
 H        -0.413464         0.982753        -1.052383
 H        -0.477176        -0.645174        -0.348877
 H         2.216058         2.320333        -0.377656
 H         2.014344         1.702138         1.235921
 H         4.573541         1.094417         0.548075
 H         3.701533        -1.313483         1.618038
