19
Iteration:   602
 C         4.525156        -1.126214        -1.495522
 C         3.561125        -0.466753        -0.556432
 O         2.254706        -0.386688        -1.197465
 C         1.446842         0.207735        -0.150746
 C         0.038493         0.043752        -0.323313
 C         2.344646         1.558523         0.222562
 C         3.583439         0.755182         0.344284
 C         3.104133        -0.654686         0.883904
 O         1.786293        -0.685001         0.994659
 H         4.667220        -0.602512        -2.507072
 H         5.566130        -1.083802        -1.010991
 H         4.383615        -2.319397        -1.622811
 H        -0.471983         0.422630         0.575471
 H        -0.459214         0.732591        -0.940899
 H        -0.301784        -0.987894        -0.537090
 H         2.392928         2.254816        -0.614538
 H         1.945158         2.058244         1.155167
 H         4.471389         1.269849         0.672452
 H         3.590392        -1.157307         1.655931
