19
Iteration:  4916charge 0 multiplicity 1
 C         4.487906        -1.257482        -1.381743
 C         3.501504        -0.397857        -0.640925
 O         2.150775        -0.420686        -1.226770
 C         1.474108         0.167656        -0.122496
 C        -0.030571        -0.031689        -0.327959
 C         2.292277         1.442326         0.160907
 C         3.602903         0.867311         0.252508
 C         3.289085        -0.478059         0.946236
 O         1.876012        -0.584540         1.074296
 H         5.225911        -1.677777        -0.717423
 H         4.080355        -2.071728        -2.005594
 H         5.003359        -0.754815        -2.118353
 H        -0.610329         0.351353         0.458620
 H        -0.265970         0.324582        -1.265885
 H         0.066071        -1.105165        -0.233724
 H         2.099864         2.173855        -0.715989
 H         1.897423         2.123946         1.053386
 H         4.637643         1.307237         0.179363
 H         3.715690        -1.075703         1.847578
