19
Iteration:  1771
 C         4.666428        -1.046414        -1.368756
 C         3.534977        -0.489952        -0.660480
 O         2.299600        -0.119717        -1.335386
 C         1.497439         0.308469        -0.218731
 C         0.099107         0.752833        -0.427409
 C         2.381176         1.188458         0.710677
 C         3.570664         0.396423         0.634204
 C         3.008938        -0.992545         0.671795
 O         1.567364        -0.847591         0.731452
 H         4.485072        -2.099187        -1.704548
 H         5.053182        -0.374307        -2.181941
 H         5.363055        -1.105792        -0.517538
 H        -0.218224         1.047251         0.569491
 H         0.163759         1.646206        -0.977324
 H        -0.548219         0.030804        -0.943372
 H         2.393626         2.308854         0.432297
 H         1.874436         0.982267         1.662747
 H         4.594877         0.741004         0.851475
 H         3.539052        -1.860372         1.037771
