19
Iteration:  3019charge 0 multiplicity 1
 C         4.660315        -0.983878        -1.418873
 C         3.496080        -0.541417        -0.565334
 O         2.140907        -0.304469        -1.281124
 C         1.463393         0.243962        -0.110640
 C         0.010978         0.482269        -0.398302
 C         2.352116         1.289769         0.394802
 C         3.673379         0.552486         0.433013
 C         3.145005        -0.786635         0.814269
 O         1.718267        -0.773811         0.921179
 H         5.035869        -2.001707        -1.156126
 H         4.221131        -1.029403        -2.358968
 H         5.529728        -0.422703        -1.117751
 H        -0.658188         0.710296         0.442452
 H        -0.106427         1.184956        -1.288853
 H        -0.419223        -0.453741        -0.839456
 H         2.395396         2.151369        -0.358038
 H         2.124795         1.756335         1.412804
 H         4.561055         1.200666         0.765325
 H         3.633276        -1.677558         1.147004
