19
Iteration:  2524charge 0 multiplicity 1
 C         4.652508        -0.992037        -1.487529
 C         3.472827        -0.524997        -0.575451
 O         2.222944        -0.170724        -1.282232
 C         1.477317         0.284956        -0.122488
 C         0.093511         0.523281        -0.485355
 C         2.385555         1.366333         0.470219
 C         3.658836         0.486282         0.541383
 C         3.034464        -0.913195         0.807530
 O         1.642253        -0.888048         0.952794
 H         4.438627        -0.625739        -2.518496
 H         5.661791        -0.615498        -1.076100
 H         4.740463        -2.068704        -1.710498
 H        -0.651174         0.597237         0.277157
 H        -0.002763         1.285100        -1.278810
 H        -0.225115        -0.275325        -1.095166
 H         2.552689         2.274950        -0.274553
 H         1.916236         1.753552         1.448169
 H         4.561560         0.833422         1.035212
 H         3.542255        -1.741125         1.364687
