19
Iteration:  4378
 C         4.534493        -1.015700        -1.531032
 C         3.486718        -0.534961        -0.541205
 O         2.140688        -0.577538        -1.098941
 C         1.462556         0.140965        -0.087292
 C        -0.003547         0.155294        -0.328074
 C         2.312893         1.453101        -0.015329
 C         3.636418         0.837178         0.333437
 C         3.209258        -0.588241         0.940983
 O         1.824550        -0.639061         1.112989
 H         4.838776        -2.089776        -1.555557
 H         4.276216        -0.689296        -2.554868
 H         5.634052        -0.607374        -1.417447
 H        -0.514768         0.593091         0.530893
 H        -0.068383         0.803910        -1.192792
 H        -0.280123        -0.924450        -0.357178
 H         2.390378         1.969937        -1.008769
 H         1.796163         2.102589         0.630749
 H         4.626886         1.291246         0.444740
 H         3.870699        -1.112707         1.689775
