19
Iteration:  1611
 C         4.696635        -0.972407        -1.474282
 C         3.470714        -0.534825        -0.557789
 O         2.378990        -0.034710        -1.272385
 C         1.507977         0.396371        -0.156613
 C         0.067235         0.654771        -0.469394
 C         2.539561         1.241056         0.692541
 C         3.639533         0.276026         0.695155
 C         2.885605        -1.052359         0.766268
 O         1.461840        -0.806880         0.602917
 H         5.584788        -1.043578        -0.799860
 H         4.524273        -2.032903        -1.945349
 H         4.869182        -0.251400        -2.305115
 H        -0.454579         0.983089         0.452685
 H        -0.211254         1.334826        -1.249711
 H        -0.306982        -0.360608        -0.854499
 H         2.834304         2.033406         0.037583
 H         2.093809         1.567537         1.636231
 H         4.497329         0.493102         1.311839
 H         3.106299        -2.107767         1.143445
