19
Iteration:   900
 C         4.528082        -1.131695        -1.348186
 C         3.510220        -0.380568        -0.605750
 O         2.303821        -0.183164        -1.266611
 C         1.480786         0.216503        -0.026224
 C        -0.005900         0.388620        -0.437928
 C         2.360268         1.384747         0.386087
 C         3.632085         0.633207         0.438357
 C         3.170663        -0.783516         0.810596
 O         1.678281        -0.905812         0.858579
 H         4.624575        -2.207489        -1.002125
 H         4.187080        -0.936779        -2.453544
 H         5.538573        -0.736046        -1.348566
 H        -0.677839         0.706599         0.344362
 H        -0.172780         1.088834        -1.268295
 H        -0.411211        -0.512789        -0.789528
 H         2.352777         2.165062        -0.414139
 H         2.017439         1.797131         1.365123
 H         4.659874         0.949101         0.799540
 H         3.737887        -1.568297         1.368357
