19
Iteration:  2025
 C         4.583883        -1.061564        -1.418272
 C         3.504982        -0.522358        -0.555939
 O         2.325906        -0.093569        -1.303820
 C         1.525918         0.305302        -0.149800
 C         0.081348         0.712368        -0.486509
 C         2.414377         1.347101         0.667076
 C         3.654759         0.423288         0.647724
 C         2.972256        -1.000656         0.751620
 O         1.576180        -0.957133         0.669217
 H         4.597239        -2.135892        -1.647634
 H         4.506379        -0.549152        -2.481468
 H         5.576028        -0.893151        -0.974478
 H        -0.321451         1.073018         0.435225
 H         0.049756         1.552933        -1.211698
 H        -0.463551        -0.074899        -0.902157
 H         2.689739         2.272358         0.091572
 H         1.909348         1.457533         1.628694
 H         4.512591         0.797253         1.240584
 H         3.339742        -1.886792         1.171693
