19
Iteration:   123charge 0 multiplicity 1
 C         4.597187        -1.149245        -1.393700
 C         3.525215        -0.458148        -0.600323
 O         2.261258        -0.621498        -1.188808
 C         1.493638         0.060778        -0.133588
 C        -0.011392        -0.061703        -0.018909
 C         2.090846         1.460455        -0.095180
 C         3.506015         0.919261         0.148018
 C         3.259870        -0.413347         0.866676
 O         1.902472        -0.488870         1.087320
 H         4.236594        -0.967381        -2.386243
 H         5.568357        -0.646721        -1.274011
 H         4.694057        -2.247490        -1.309442
 H        -0.244000         0.678948         0.749204
 H        -0.451570         0.249670        -0.947476
 H        -0.295535        -1.053673         0.317664
 H         2.011890         2.175745        -0.953990
 H         1.635231         1.959326         0.721741
 H         4.507764         1.374477         0.353202
 H         3.870410        -0.804472         1.754908
