19
Iteration:  1849charge 0 multiplicity 1
 C         4.577896        -1.010910        -1.566687
 C         3.472359        -0.518016        -0.633142
 O         2.342197        -0.104844        -1.211501
 C         1.526187         0.342796        -0.124176
 C         0.082637         0.508627        -0.637866
 C         2.555220         1.322120         0.752387
 C         3.607522         0.375013         0.624984
 C         2.951179        -0.977136         0.839296
 O         1.526957        -0.785526         0.713028
 H         4.181636        -0.943847        -2.552302
 H         5.436418        -0.230155        -1.477351
 H         5.094763        -1.933645        -1.388910
 H        -0.312606         0.745532         0.322995
 H        -0.100718         1.315061        -1.227444
 H        -0.269377        -0.474645        -0.936882
 H         2.774509         2.447815         0.514254
 H         2.035878         1.438560         1.745695
 H         4.465802         0.525458         1.251676
 H         3.189517        -1.903603         1.334114
