19
Iteration:  2328
 C         4.736613        -1.133063        -1.377270
 C         3.484785        -0.438655        -0.599764
 O         2.212347        -0.143699        -1.332630
 C         1.496775         0.283661        -0.138674
 C         0.114345         0.616385        -0.413062
 C         2.348851         1.300520         0.638390
 C         3.596992         0.522598         0.545540
 C         3.041900        -0.928028         0.732882
 O         1.621352        -0.893501         0.737392
 H         5.136323        -2.004396        -0.910406
 H         4.410256        -1.593434        -2.391248
 H         5.448936        -0.363937        -1.607295
 H        -0.514743         0.865341         0.432287
 H        -0.035569         1.451889        -1.135111
 H        -0.412668        -0.206355        -0.840721
 H         2.368357         2.298290         0.042774
 H         2.123196         1.400605         1.747546
 H         4.523084         0.982777         0.818819
 H         3.448253        -1.669479         1.377405
