19
Iteration:  1863charge 0 multiplicity 1
 C         4.641181        -0.991614        -1.502787
 C         3.532464        -0.539013        -0.568851
 O         2.260062        -0.067413        -1.274970
 C         1.496821         0.302509        -0.158120
 C         0.078044         0.613748        -0.559774
 C         2.429212         1.285927         0.713205
 C         3.724688         0.393219         0.611842
 C         2.951632        -0.990686         0.759189
 O         1.548999        -0.842665         0.770518
 H         4.241551        -1.058672        -2.487398
 H         5.476531        -0.374292        -1.499006
 H         4.881055        -1.989131        -1.187686
 H        -0.616172         0.837838         0.226530
 H         0.095760         1.461693        -1.317583
 H        -0.301460        -0.210699        -1.108085
 H         2.397179         2.295843         0.236708
 H         2.173159         1.191797         1.834375
 H         4.745360         0.489813         0.975441
 H         3.391017        -1.721339         1.531918
