19
Iteration:  1255charge 0 multiplicity 1
 C         4.579949        -0.974595        -1.467352
 C         3.532203        -0.479700        -0.535320
 O         2.344007        -0.062488        -1.235362
 C         1.556260         0.327197        -0.129379
 C         0.109497         0.599214        -0.506654
 C         2.456496         1.306407         0.569092
 C         3.575384         0.388327         0.649424
 C         2.957501        -1.006986         0.795055
 O         1.531158        -0.914969         0.691911
 H         4.838254        -0.058225        -2.140518
 H         5.506343        -1.352823        -1.130874
 H         4.061913        -1.808335        -2.034097
 H        -0.376876         0.904213         0.416743
 H        -0.031721         1.327151        -1.289553
 H        -0.231092        -0.357301        -0.836757
 H         2.748454         2.139014        -0.109293
 H         2.032161         1.592097         1.546849
 H         4.540258         0.506555         1.178134
 H         3.380737        -1.922045         1.268381
