19
Iteration:  3709charge 0 multiplicity 1
 C         4.618752        -1.160508        -1.438126
 C         3.537264        -0.481340        -0.558608
 O         2.235319        -0.397763        -1.222465
 C         1.490620         0.211344        -0.184284
 C        -0.026316         0.163814        -0.253727
 C         2.308678         1.469758         0.232937
 C         3.570773         0.676708         0.324340
 C         3.188279        -0.661303         0.859703
 O         1.737523        -0.602819         0.952645
 H         4.914529        -2.083328        -0.864448
 H         4.028226        -1.361408        -2.309898
 H         5.420626        -0.360047        -1.674106
 H        -0.403065         0.677061         0.603322
 H        -0.502361         0.613713        -1.065359
 H        -0.246846        -0.867624        -0.414319
 H         2.336614         2.321574        -0.425761
 H         2.083124         1.836581         1.263636
 H         4.556174         1.255112         0.485849
 H         3.675175        -1.392642         1.605293
