19
Iteration:  2489
 C         4.595702        -1.085351        -1.383561
 C         3.533414        -0.458001        -0.604269
 O         2.372645        -0.174130        -1.299598
 C         1.522202         0.264504        -0.178428
 C        -0.008532         0.451937        -0.273774
 C         2.334360         1.418986         0.456215
 C         3.671092         0.517665         0.629438
 C         2.999903        -0.946671         0.735118
 O         1.614167        -0.800615         0.706909
 H         4.410800        -0.955393        -2.470789
 H         5.573591        -0.565513        -1.362532
 H         4.731733        -2.087001        -0.951255
 H        -0.436853         0.722373         0.720285
 H        -0.199073         1.329241        -0.927423
 H        -0.305244        -0.588742        -0.522474
 H         2.607849         2.167793        -0.381981
 H         1.795367         1.906569         1.318658
 H         4.665541         0.862877         1.017347
 H         3.272305        -1.903133         1.140774
