19
Iteration:  4406charge 0 multiplicity 1
 C         4.573856        -1.060425        -1.476234
 C         3.502710        -0.524719        -0.580596
 O         2.266027        -0.578309        -1.150878
 C         1.454331         0.159671        -0.116393
 C        -0.082794         0.151561        -0.280091
 C         2.238168         1.399486         0.085857
 C         3.588382         0.772568         0.180172
 C         3.223553        -0.521606         0.949267
 O         1.844611        -0.564827         1.087371
 H         4.315501        -2.035877        -1.833868
 H         4.751606        -0.401412        -2.300472
 H         5.521739        -1.319687        -1.070388
 H        -0.377446         0.609414         0.669059
 H        -0.387625         0.777572        -1.132113
 H        -0.308298        -0.878666        -0.252180
 H         2.217821         2.055686        -0.804172
 H         1.839286         1.816064         1.088126
 H         4.514092         1.246498         0.508714
 H         3.850459        -0.851283         1.681167
