19
Iteration:   164charge 0 multiplicity 1
 C         4.519130        -1.093401        -1.436614
 C         3.468449        -0.497970        -0.602141
 O         2.156929        -0.576713        -1.082428
 C         1.432004         0.074230         0.041691
 C        -0.008302        -0.180145        -0.284916
 C         2.268016         1.559755        -0.074774
 C         3.575480         0.865535         0.097479
 C         3.287459        -0.399971         0.877829
 O         1.927185        -0.478716         1.206107
 H         4.047710        -1.654859        -2.223118
 H         5.105187        -0.330942        -1.873971
 H         5.127859        -1.741975        -0.858608
 H        -0.822390         0.229249         0.352500
 H        -0.115039         0.216273        -1.277896
 H        -0.173399        -1.276485        -0.419277
 H         1.980866         2.082467        -1.012757
 H         2.032104         2.200191         0.771858
 H         4.588486         1.325274         0.275622
 H         4.062082        -0.845125         1.557352
