19
Iteration:  1881charge 0 multiplicity 1
 C         4.585989        -1.047574        -1.401038
 C         3.455392        -0.451723        -0.611328
 O         2.304487        -0.074782        -1.286643
 C         1.485695         0.257505        -0.051164
 C         0.125020         0.737925        -0.526702
 C         2.383896         1.302629         0.590612
 C         3.543260         0.381630         0.663119
 C         3.088718        -1.045630         0.703560
 O         1.657009        -0.922250         0.767391
 H         4.365665        -1.173823        -2.462015
 H         5.470967        -0.275573        -1.408973
 H         4.938035        -2.036256        -1.063058
 H        -0.500144         0.936620         0.345769
 H         0.185037         1.640665        -1.061711
 H        -0.459244         0.011949        -1.134143
 H         2.595769         2.080648        -0.204196
 H         1.809152         1.576171         1.469760
 H         4.414550         0.845236         1.078534
 H         3.461801        -2.025492         1.017958
