19
Iteration:  1992
 C         4.506729        -1.086266        -1.602160
 C         3.566480        -0.461056        -0.587797
 O         2.372644        -0.070823        -1.262252
 C         1.530024         0.297098        -0.143279
 C         0.168568         0.725518        -0.616850
 C         2.295174         1.257575         0.682585
 C         3.632108         0.410515         0.705765
 C         2.992765        -0.969152         0.848346
 O         1.590541        -0.959094         0.788830
 H         4.361185        -2.168235        -1.550099
 H         4.219029        -0.657338        -2.674228
 H         5.551609        -0.818380        -1.376029
 H        -0.418375         1.044309         0.205316
 H         0.277600         1.593587        -1.287480
 H        -0.317152        -0.078133        -1.064133
 H         2.648511         2.192317         0.219061
 H         1.876656         1.649445         1.624320
 H         4.470034         0.725790         1.354747
 H         3.301134        -1.851544         1.357612
