19
Iteration:  2876charge 0 multiplicity 1
 C         4.642561        -1.042053        -1.508814
 C         3.552085        -0.494029        -0.563292
 O         2.261121        -0.232779        -1.219830
 C         1.485010         0.241424        -0.128745
 C         0.009456         0.537647        -0.418458
 C         2.355896         1.395396         0.354512
 C         3.594148         0.544435         0.576354
 C         3.077087        -0.878053         0.857539
 O         1.672195        -0.910562         0.839571
 H         5.464505        -0.264420        -1.621405
 H         4.871630        -1.928041        -0.952864
 H         4.163191        -1.085124        -2.490998
 H        -0.272954         0.662417         0.652020
 H        -0.108115         1.386133        -1.119944
 H        -0.597476        -0.355818        -0.856377
 H         2.558342         2.144130        -0.508486
 H         1.975076         1.927968         1.306117
 H         4.438465         1.015813         0.948166
 H         3.661004        -1.626273         1.374376
