19
Iteration:  3329
 C         4.619641        -1.106964        -1.380763
 C         3.509991        -0.443584        -0.638651
 O         2.149332        -0.400029        -1.228510
 C         1.455799         0.195129        -0.120565
 C        -0.038558         0.341885        -0.326707
 C         2.255248         1.420989         0.222644
 C         3.615369         0.705803         0.334302
 C         3.229517        -0.674105         0.860054
 O         1.818072        -0.802509         0.998624
 H         5.612460        -1.290854        -1.017047
 H         4.410646        -2.178255        -1.448500
 H         4.752282        -0.704062        -2.336114
 H        -0.322491         0.921710         0.601997
 H        -0.018135         1.111351        -1.152808
 H        -0.433922        -0.742791        -0.436074
 H         2.325387         2.264924        -0.538832
 H         1.953454         1.914114         1.238531
 H         4.502458         1.302205         0.471210
 H         3.655463        -1.383281         1.568316
