19
Iteration:  2547
 C         4.516722        -0.945352        -1.492272
 C         3.502815        -0.476570        -0.557979
 O         2.210036        -0.352304        -1.212112
 C         1.476511         0.179309        -0.148586
 C         0.105781         0.562013        -0.589178
 C         2.360086         1.339577         0.589902
 C         3.624747         0.486136         0.535785
 C         3.160320        -0.893567         0.804101
 O         1.701549        -0.742736         0.871420
 H         4.634761        -0.273618        -2.367475
 H         5.569516        -1.120919        -0.987869
 H         4.292314        -1.901052        -2.025049
 H        -0.624401         0.682763         0.165646
 H         0.142760         1.302247        -1.349243
 H        -0.370198        -0.115517        -1.221287
 H         2.559732         2.427625         0.107292
 H         1.981858         1.365360         1.686283
 H         4.477254         0.997907         0.869223
 H         3.468726        -1.620542         1.550594
