19
Iteration:  4521
 C         4.546240        -0.984015        -1.470845
 C         3.456031        -0.486201        -0.619608
 O         2.161212        -0.553475        -1.125611
 C         1.453996         0.110389         0.006220
 C        -0.000737         0.155486        -0.376216
 C         2.274084         1.437402        -0.046266
 C         3.540070         0.747848         0.198793
 C         3.304682        -0.629076         0.960579
 O         1.869952        -0.594319         1.214632
 H         4.295490        -1.857926        -2.136405
 H         5.049019        -0.040354        -1.934817
 H         5.409160        -1.512352        -0.907055
 H        -0.657257         0.502711         0.412932
 H        -0.123508         0.816193        -1.222861
 H        -0.281929        -0.899702        -0.444275
 H         2.175961         1.882212        -1.030952
 H         1.919492         2.169495         0.696027
 H         4.553948         1.122664         0.294787
 H         3.950695        -0.796309         1.708089
