19
Iteration:  4132
 C         4.477191        -1.171070        -1.323256
 C         3.436136        -0.473524        -0.625773
 O         2.171732        -0.332413        -1.184965
 C         1.455042         0.170521        -0.050519
 C        -0.012026         0.178427        -0.356698
 C         2.245895         1.448874         0.152837
 C         3.663598         0.800995         0.352488
 C         3.282003        -0.638163         0.835808
 O         1.869600        -0.724845         0.987554
 H         4.505196        -0.873796        -2.419373
 H         5.562012        -0.941682        -0.848965
 H         4.490128        -2.288780        -1.326350
 H        -0.533764         0.614576         0.452582
 H        -0.199225         0.604746        -1.306638
 H        -0.090337        -0.832779        -0.628606
 H         2.197807         1.901927        -0.785340
 H         1.943235         2.251272         0.810356
 H         4.645048         1.153767         0.700354
 H         3.925704        -1.213483         1.375194
