19
Iteration:  2639
 C         4.666616        -1.092733        -1.322967
 C         3.463929        -0.480045        -0.674822
 O         2.290655        -0.161613        -1.351342
 C         1.459152         0.231610        -0.033393
 C         0.006115         0.507120        -0.367449
 C         2.301124         1.355082         0.508904
 C         3.673743         0.558851         0.486067
 C         3.107982        -0.867395         0.713300
 O         1.647685        -0.808137         0.837133
 H         5.433350        -0.316919        -1.734730
 H         5.167581        -1.832365        -0.702894
 H         4.521432        -1.708061        -2.347085
 H        -0.597306         0.816182         0.543137
 H        -0.177956         0.956622        -1.393796
 H        -0.376118        -0.539987        -0.736903
 H         2.419742         2.150960        -0.178642
 H         2.009257         1.595758         1.521111
 H         4.648081         0.858149         0.914201
 H         3.473691        -1.759478         1.297705
