19
Iteration:  3074charge 0 multiplicity 1
 C         4.514253        -1.124745        -1.465640
 C         3.533641        -0.461098        -0.581744
 O         2.353062        -0.252134        -1.301899
 C         1.462712         0.157848        -0.173868
 C        -0.068020         0.327320        -0.342066
 C         2.318258         1.399724         0.368260
 C         3.666489         0.627006         0.504751
 C         3.156503        -0.768171         0.850891
 O         1.738146        -0.718269         0.864852
 H         3.883296        -1.885626        -1.939096
 H         5.019938        -0.431957        -2.054160
 H         5.181248        -1.565127        -0.698234
 H        -0.540220         0.593530         0.620013
 H        -0.388037         1.192390        -1.011671
 H        -0.376795        -0.686275        -0.610918
 H         2.313040         2.305046        -0.303568
 H         2.019154         1.677235         1.441614
 H         4.595012         1.096626         0.733557
 H         3.518527        -1.413914         1.555904
