19
Iteration:  3009
 C         4.654576        -1.019055        -1.492995
 C         3.550950        -0.542701        -0.595336
 O         2.138601        -0.313879        -1.244590
 C         1.474326         0.189397        -0.153587
 C         0.048485         0.499111        -0.459817
 C         2.331827         1.370319         0.404913
 C         3.584106         0.573166         0.483551
 C         3.123069        -0.845770         0.872139
 O         1.731929        -0.752510         0.955862
 H         5.072236        -2.002777        -1.301993
 H         4.478815        -1.055269        -2.519326
 H         5.421252        -0.244436        -1.677711
 H        -0.407805         0.772869         0.488863
 H        -0.156040         1.249625        -1.282598
 H        -0.359683        -0.458079        -0.765604
 H         2.430481         2.346449        -0.190637
 H         1.959944         1.506378         1.504012
 H         4.563034         1.048197         0.784743
 H         3.539194        -1.550814         1.551420
