19
Iteration:  2791
 C         4.552293        -1.082116        -1.429855
 C         3.561982        -0.406383        -0.541177
 O         2.308119        -0.189738        -1.290605
 C         1.507457         0.244780        -0.175933
 C         0.095356         0.536122        -0.415962
 C         2.364296         1.336344         0.474390
 C         3.604731         0.563512         0.547097
 C         3.055056        -0.875875         0.792984
 O         1.628364        -0.906826         0.807310
 H         4.492666        -0.839532        -2.530254
 H         5.604380        -0.979987        -1.273242
 H         4.478990        -2.211099        -1.355829
 H        -0.433663         0.880351         0.445765
 H        -0.218724         1.292272        -1.066360
 H        -0.329401        -0.448160        -0.523512
 H         2.373786         2.305848        -0.098937
 H         1.843860         1.572619         1.455563
 H         4.440969         1.012590         0.942696
 H         3.553485        -1.589073         1.387769
