19
Iteration:  3275
 C         4.568628        -1.026857        -1.461570
 C         3.490841        -0.463224        -0.601112
 O         2.173710        -0.322554        -1.156720
 C         1.449597         0.191592        -0.056672
 C        -0.042426         0.294517        -0.376652
 C         2.357173         1.430534         0.136543
 C         3.661803         0.627345         0.435034
 C         3.206156        -0.734565         0.860089
 O         1.779515        -0.755379         0.999968
 H         5.513260        -0.464966        -1.469774
 H         4.831788        -2.083941        -1.109969
 H         4.186869        -1.126158        -2.444297
 H        -0.526608         0.458789         0.589947
 H        -0.081201         0.858063        -1.321774
 H        -0.439076        -0.766224        -0.661302
 H         2.552708         1.957594        -0.849632
 H         1.974262         2.219171         0.914359
 H         4.602247         1.001728         0.719339
 H         3.514986        -1.389222         1.597508
