19
Iteration:  3106charge 0 multiplicity 1
 C         4.532108        -1.095663        -1.508247
 C         3.452260        -0.527737        -0.647627
 O         2.190199        -0.297670        -1.182843
 C         1.476045         0.232186        -0.007902
 C         0.040804         0.354371        -0.490952
 C         2.303318         1.405739         0.362053
 C         3.650416         0.691911         0.544667
 C         3.215294        -0.755009         0.799468
 O         1.757521        -0.763095         0.958125
 H         4.165968        -1.466737        -2.512464
 H         5.410834        -0.536125        -1.650237
 H         5.041211        -1.947774        -0.989719
 H        -0.665056         0.537583         0.333209
 H         0.141689         0.945186        -1.501036
 H        -0.080010        -0.630001        -1.024021
 H         2.186154         2.111037        -0.486385
 H         2.063061         1.910985         1.315687
 H         4.595566         1.087622         0.746647
 H         3.613708        -1.458069         1.431714
