19
Iteration:  4525
 C         4.528890        -0.972633        -1.448201
 C         3.463277        -0.527858        -0.623592
 O         2.129968        -0.585223        -1.149765
 C         1.467896         0.130339         0.004759
 C        -0.015075         0.171044        -0.375184
 C         2.265974         1.439553        -0.029465
 C         3.565205         0.757250         0.184630
 C         3.314683        -0.606392         0.955969
 O         1.878814        -0.596413         1.212035
 H         4.476697        -1.820356        -2.161239
 H         4.996591        -0.102584        -1.997161
 H         5.345985        -1.347122        -0.943499
 H        -0.619618         0.609038         0.508871
 H        -0.099871         0.818380        -1.317849
 H        -0.170821        -0.915724        -0.545973
 H         2.197419         1.811201        -1.027229
 H         1.865580         2.042711         0.794347
 H         4.521305         1.287030         0.449199
 H         3.936680        -0.929123         1.906901
