19
Iteration:  4726
 C         4.625020        -1.081591        -1.373470
 C         3.451871        -0.456951        -0.661796
 O         2.134568        -0.559887        -1.228611
 C         1.475182         0.207822        -0.078929
 C        -0.020037         0.169406        -0.283441
 C         2.293149         1.471528         0.116508
 C         3.555804         0.730007         0.241339
 C         3.282466        -0.588503         0.883136
 O         1.812927        -0.654938         1.096367
 H         5.573486        -0.874736        -0.857031
 H         4.593080        -2.148492        -1.350983
 H         4.738046        -0.720154        -2.452483
 H        -0.564479         0.611458         0.601428
 H        -0.328190         0.702579        -1.224887
 H        -0.188481        -0.925805        -0.227162
 H         2.184757         2.236050        -0.769057
 H         1.965921         2.155560         0.933946
 H         4.563968         1.231461         0.333197
 H         4.019522        -1.007547         1.688443
