19
Iteration:  3414charge 0 multiplicity 1
 C         4.543982        -1.100118        -1.454973
 C         3.459257        -0.483546        -0.596269
 O         2.169023        -0.398099        -1.204943
 C         1.428052         0.225195        -0.099470
 C         0.017991         0.237143        -0.387442
 C         2.292764         1.456134         0.180929
 C         3.664848         0.704844         0.382246
 C         3.265675        -0.694014         0.882166
 O         1.821000        -0.718569         1.080394
 H         4.993684        -1.839419        -0.741289
 H         4.003738        -1.433483        -2.357985
 H         5.245509        -0.263992        -1.860424
 H        -0.643354         0.478686         0.449274
 H        -0.154488         0.835593        -1.315944
 H        -0.490321        -0.720402        -0.677035
 H         2.348716         2.007389        -0.734675
 H         2.068806         2.146485         1.024032
 H         4.679597         1.175675         0.377179
 H         3.722064        -1.420163         1.629400
