19
Iteration:   546
 C         4.631021        -1.112935        -1.455604
 C         3.515266        -0.543133        -0.632897
 O         2.159455        -0.575503        -1.165613
 C         1.467853         0.153807        -0.054567
 C         0.008384         0.243707        -0.381897
 C         2.187507         1.463680         0.292125
 C         3.582731         0.817017         0.257479
 C         3.273458        -0.513408         0.847839
 O         1.807696        -0.680902         1.016452
 H         5.650321        -0.659461        -1.297106
 H         4.936333        -2.158257        -1.147568
 H         4.371123        -0.978809        -2.569637
 H        -0.483742         0.599070         0.500695
 H        -0.027399         0.866043        -1.262180
 H        -0.383323        -0.726679        -0.615872
 H         2.005612         2.386923        -0.344672
 H         1.768381         1.712331         1.252144
 H         4.542527         1.235027         0.430583
 H         3.832821        -1.035214         1.650424
