19
Iteration:  2811charge 0 multiplicity 1
 C         4.516067        -1.030763        -1.445030
 C         3.468833        -0.523706        -0.573551
 O         2.248775        -0.131629        -1.249016
 C         1.451730         0.220181        -0.050225
 C         0.043089         0.429505        -0.542753
 C         2.365225         1.408552         0.456398
 C         3.684373         0.475831         0.609144
 C         3.128554        -0.887805         0.810774
 O         1.708407        -0.813951         0.820232
 H         4.631679        -0.514648        -2.483381
 H         5.475061        -0.979136        -0.894022
 H         4.539128        -2.085997        -1.792662
 H        -0.576142         0.901128         0.259050
 H         0.193370         1.259308        -1.220710
 H        -0.452079        -0.518497        -0.878740
 H         2.457608         2.234219        -0.369054
 H         2.117604         1.972405         1.453580
 H         4.653445         0.710863         0.898644
 H         3.430741        -1.704218         1.388228
