19
Iteration:   621charge 0 multiplicity 1
 C         4.553859        -1.092885        -1.376322
 C         3.523023        -0.475741        -0.628057
 O         2.214654        -0.444043        -1.234050
 C         1.471771         0.179487        -0.187688
 C        -0.026885         0.193919        -0.340630
 C         2.260802         1.392604         0.264857
 C         3.641128         0.742656         0.352774
 C         3.290919        -0.620989         0.905316
 O         1.759678        -0.624736         0.991211
 H         4.280830        -1.016458        -2.423750
 H         5.492129        -0.560552        -1.506535
 H         4.669842        -2.174820        -1.271343
 H        -0.582041         0.455195         0.570301
 H        -0.430503         0.797550        -1.157723
 H        -0.219390        -0.837600        -0.606101
 H         2.067756         2.392844        -0.327403
 H         1.932183         1.607451         1.272804
 H         4.575044         1.176159         0.550553
 H         3.736131        -1.316757         1.579604
