19
Iteration:  3692
 C         4.558059        -1.199457        -1.446949
 C         3.449584        -0.519507        -0.618898
 O         2.168216        -0.377334        -1.254492
 C         1.500260         0.229396        -0.158759
 C        -0.015794         0.141162        -0.409111
 C         2.267537         1.443801         0.329269
 C         3.697150         0.749988         0.335186
 C         3.205330        -0.630415         0.905872
 O         1.821953        -0.602371         1.058286
 H         5.092145        -1.995519        -0.960498
 H         4.192701        -1.440103        -2.512777
 H         5.409561        -0.601287        -1.678336
 H        -0.447683         0.609449         0.547044
 H        -0.234867         0.744670        -1.366320
 H        -0.293818        -0.961324        -0.567337
 H         2.090397         2.336563        -0.367223
 H         1.823551         1.600618         1.306509
 H         4.581038         1.210722         0.530648
 H         3.683051        -1.154428         1.647669
