19
Iteration:  2031charge 0 multiplicity 1
 C         4.624766        -1.056902        -1.411354
 C         3.479876        -0.496594        -0.586392
 O         2.325257        -0.041037        -1.277034
 C         1.503522         0.321851        -0.138190
 C         0.089239         0.709913        -0.469671
 C         2.464921         1.319241         0.642134
 C         3.644014         0.379697         0.621329
 C         2.956947        -1.013899         0.764648
 O         1.564481        -0.952084         0.676603
 H         4.499070        -2.131041        -1.601158
 H         4.769323        -0.564113        -2.339692
 H         5.558906        -0.833431        -0.884972
 H        -0.571457         1.004252         0.417703
 H         0.072641         1.505550        -1.238981
 H        -0.536295        -0.202593        -0.890752
 H         2.492840         2.070164        -0.159057
 H         1.876955         1.580151         1.540326
 H         4.591094         0.600806         1.094232
 H         3.531762        -1.851834         1.268196
