19
Iteration:  3729charge 0 multiplicity 1
 C         4.625138        -1.107308        -1.417419
 C         3.483377        -0.475153        -0.586054
 O         2.207170        -0.376290        -1.261163
 C         1.427329         0.157420        -0.061594
 C        -0.035888         0.251982        -0.246088
 C         2.347838         1.470810         0.096308
 C         3.642475         0.747743         0.407057
 C         3.160924        -0.670005         0.846951
 O         1.802727        -0.775698         0.969034
 H         4.883946        -1.989916        -0.805295
 H         4.260773        -1.493239        -2.298488
 H         5.262689        -0.234964        -1.536337
 H        -0.523912         0.760340         0.583615
 H        -0.422521         0.856033        -1.079042
 H        -0.497667        -0.768702        -0.355902
 H         2.524545         1.957125        -0.858911
 H         1.824390         2.311859         0.749472
 H         4.692287         1.101921         0.837174
 H         3.708685        -1.329148         1.643716
