19
Iteration:  2383
 C         4.609836        -0.981232        -1.524105
 C         3.525837        -0.512891        -0.598243
 O         2.329386        -0.205408        -1.217217
 C         1.527138         0.300294        -0.186286
 C         0.076246         0.521400        -0.433732
 C         2.418493         1.399981         0.483083
 C         3.642655         0.438408         0.653025
 C         2.947871        -0.966440         0.837689
 O         1.556786        -0.814117         0.752955
 H         4.671546        -2.071292        -1.541671
 H         4.349760        -0.437126        -2.550006
 H         5.575108        -0.600820        -1.197041
 H        -0.158408         0.577021         0.607679
 H        -0.207248         1.314412        -1.153660
 H        -0.334185        -0.337782        -0.885461
 H         2.564813         2.396144        -0.136097
 H         2.054633         1.558803         1.554745
 H         4.618131         0.455980         1.168062
 H         3.388536        -1.689820         1.454656
