19
Iteration:  4589
 C         4.587285        -1.256282        -1.355336
 C         3.493074        -0.416324        -0.640970
 O         2.176910        -0.341091        -1.185242
 C         1.461045         0.078548        -0.106907
 C        -0.001180         0.061584        -0.244942
 C         2.213246         1.522220         0.046804
 C         3.592276         0.827833         0.297631
 C         3.314432        -0.583272         0.857594
 O         1.855757        -0.688938         1.040493
 H         4.687156        -2.201569        -0.759602
 H         4.073924        -1.200899        -2.412307
 H         5.433947        -0.623073        -1.346904
 H        -0.533281         0.637474         0.568136
 H        -0.362460         0.626104        -1.140938
 H        -0.521422        -0.876744        -0.123468
 H         2.250121         2.007227        -0.850354
 H         1.781658         2.256075         0.734154
 H         4.581148         1.363625         0.300328
 H         3.853909        -1.070459         1.779447
