19
Iteration:  1099charge 0 multiplicity 1
 C         4.611949        -1.008210        -1.411887
 C         3.520636        -0.429602        -0.637635
 O         2.243840        -0.244188        -1.295245
 C         1.493078         0.176047        -0.109795
 C         0.077945         0.698263        -0.511329
 C         2.324587         1.295303         0.560495
 C         3.631446         0.510737         0.604345
 C         3.102475        -0.914604         0.748549
 O         1.675966        -0.910518         0.828268
 H         4.115960        -1.848298        -1.877201
 H         4.914253        -0.258581        -2.249426
 H         5.341104        -1.440596        -0.727814
 H        -0.657126         0.976888         0.248678
 H         0.120166         1.484334        -1.224400
 H        -0.286264        -0.189855        -1.070682
 H         2.363972         2.308154        -0.000362
 H         1.795528         1.493776         1.564113
 H         4.568227         0.882779         1.116351
 H         3.545655        -1.627510         1.450251
