19
Iteration:  4098
 C         4.592837        -1.165439        -1.581600
 C         3.525662        -0.520083        -0.518318
 O         2.239891        -0.541792        -1.222699
 C         1.478424         0.113265        -0.202951
 C        -0.002379         0.304684        -0.381711
 C         2.196310         1.402513         0.264890
 C         3.633826         0.790931         0.337781
 C         3.224782        -0.522255         0.968119
 O         1.789830        -0.627615         1.062509
 H         4.053621        -1.034824        -2.536383
 H         5.489933        -0.390330        -1.599088
 H         4.858057        -2.205338        -1.330755
 H        -0.570177         0.618885         0.449623
 H        -0.234171         0.933014        -1.194183
 H        -0.461140        -0.658665        -0.478911
 H         2.087413         2.131659        -0.454105
 H         1.798389         1.682244         1.270391
 H         4.639492         1.147444         0.702605
 H         3.757748        -1.111466         1.779063
