19
Iteration:  2029charge 0 multiplicity 1
 C         4.609785        -1.053985        -1.417690
 C         3.487861        -0.506270        -0.573757
 O         2.326253        -0.059305        -1.287448
 C         1.511750         0.318525        -0.141680
 C         0.085256         0.713057        -0.478138
 C         2.451772         1.333073         0.655692
 C         3.652458         0.393677         0.624676
 C         2.955744        -1.006979         0.762051
 O         1.569184        -0.957930         0.673486
 H         4.539552        -2.159712        -1.632038
 H         4.682047        -0.596050        -2.335485
 H         5.572785        -0.847027        -0.912529
 H        -0.497040         1.021507         0.419484
 H         0.059578         1.487330        -1.204628
 H        -0.511228        -0.135789        -0.883374
 H         2.567670         2.127100        -0.107242
 H         1.840669         1.526224         1.589379
 H         4.552200         0.681657         1.150485
 H         3.491319        -1.875708         1.233512
