19
Iteration:  4278charge 0 multiplicity 1
 C         4.576468        -1.168997        -1.411221
 C         3.529172        -0.464593        -0.655848
 O         2.180113        -0.389693        -1.180009
 C         1.468247         0.158941        -0.043247
 C        -0.050110         0.085299        -0.240427
 C         2.286479         1.540185         0.059658
 C         3.555626         0.776535         0.315697
 C         3.226543        -0.603696         0.868911
 O         1.873975        -0.666360         1.036897
 H         5.139565        -1.770990        -0.725242
 H         4.177753        -2.039402        -1.881570
 H         5.217496        -0.636189        -2.202529
 H        -0.662923         0.484630         0.550797
 H        -0.257306         0.577742        -1.184646
 H        -0.316264        -0.933801        -0.403575
 H         2.153241         2.126523        -0.850695
 H         1.927692         2.185222         0.735749
 H         4.499284         1.302712         0.551457
 H         3.833481        -1.030529         1.660277
