19
Iteration:   597
 C         4.533479        -1.157491        -1.478140
 C         3.557369        -0.490151        -0.593004
 O         2.236392        -0.350879        -1.210916
 C         1.463544         0.186828        -0.106817
 C         0.005843         0.039766        -0.306079
 C         2.336179         1.555293         0.185391
 C         3.571037         0.768608         0.389940
 C         3.164514        -0.642708         0.907620
 O         1.776860        -0.684838         0.984441
 H         4.782598        -0.547025        -2.318570
 H         5.509571        -1.128619        -1.059601
 H         4.246335        -2.080749        -1.854119
 H        -0.559474         0.303469         0.593156
 H        -0.339844         0.749785        -1.154096
 H        -0.237705        -0.976323        -0.585217
 H         2.363917         2.223345        -0.756528
 H         2.085470         2.196139         1.014515
 H         4.469320         1.307951         0.724475
 H         3.568900        -1.347850         1.713460
