19
Iteration:  2196charge 0 multiplicity 1
 C         4.554815        -0.984163        -1.333296
 C         3.487707        -0.444275        -0.581410
 O         2.316614        -0.063072        -1.277471
 C         1.514714         0.259773        -0.136870
 C         0.074624         0.611996        -0.368991
 C         2.487137         1.362682         0.463474
 C         3.575916         0.386483         0.658004
 C         2.976808        -1.005762         0.729979
 O         1.619415        -0.951269         0.640751
 H         5.017009        -0.361845        -2.087955
 H         5.348696        -1.375861        -0.606583
 H         4.300324        -1.952996        -1.814049
 H        -0.329324         0.854501         0.678139
 H        -0.090079         1.574257        -1.079685
 H        -0.519090        -0.253120        -0.823092
 H         2.819679         2.066266        -0.408435
 H         2.153638         1.864692         1.470045
 H         4.515743         0.683754         1.120339
 H         3.424539        -1.864052         1.233206
