19
Iteration:  1948charge 0 multiplicity 1
 C         4.628392        -1.015335        -1.433154
 C         3.467931        -0.469047        -0.615847
 O         2.258079        -0.044642        -1.336766
 C         1.555607         0.376522        -0.115347
 C         0.103502         0.550533        -0.526320
 C         2.546961         1.291637         0.622572
 C         3.601493         0.301433         0.709757
 C         2.940100        -1.042436         0.719907
 O         1.529127        -0.781475         0.783926
 H         4.435167        -2.005514        -1.838602
 H         4.917624        -0.276672        -2.326625
 H         5.514662        -1.136382        -0.793938
 H        -0.489582         0.612699         0.358282
 H        -0.159333         1.344952        -1.213460
 H        -0.073453        -0.406055        -0.950924
 H         2.676286         2.282479         0.099827
 H         2.192954         1.535638         1.655354
 H         4.550055         0.622005         1.108223
 H         3.386331        -2.020399         1.078385
