19
Iteration:  3621
 C         4.608573        -1.090900        -1.488574
 C         3.583576        -0.510997        -0.553024
 O         2.207802        -0.489117        -1.219551
 C         1.468310         0.167631        -0.181826
 C        -0.064583         0.264123        -0.285877
 C         2.267521         1.449034         0.194678
 C         3.661410         0.690664         0.327654
 C         3.162553        -0.690998         0.917218
 O         1.722843        -0.571110         1.004694
 H         5.422062        -1.627965        -0.901962
 H         4.268601        -1.653696        -2.310520
 H         5.396937        -0.374589        -2.007573
 H        -0.311857         0.539303         0.682447
 H        -0.416486         0.907647        -1.046862
 H        -0.358753        -0.750289        -0.465906
 H         2.270461         2.243477        -0.463491
 H         1.986511         1.748554         1.228176
 H         4.673752         1.081755         0.534211
 H         3.609004        -1.244403         1.702722
