19
Iteration:  4037charge 0 multiplicity 1
 C         4.609397        -1.082145        -1.401122
 C         3.513480        -0.529005        -0.601913
 O         2.189930        -0.358682        -1.206168
 C         1.466135         0.193603        -0.100616
 C        -0.067377         0.177716        -0.278974
 C         2.302889         1.467827         0.132160
 C         3.567545         0.694436         0.341548
 C         3.180956        -0.718693         0.866123
 O         1.844747        -0.640539         1.015588
 H         4.374872        -1.775197        -2.205144
 H         5.154440        -0.369897        -1.799730
 H         5.356489        -1.538111        -0.771810
 H        -0.598094         0.681179         0.591330
 H        -0.260299         0.738368        -1.232579
 H        -0.311015        -0.868992        -0.526726
 H         2.310935         2.118148        -0.819348
 H         1.918330         2.052935         0.966009
 H         4.598629         1.050424         0.476469
 H         3.707031        -1.295911         1.566164
