19
Iteration:  2387charge 0 multiplicity 1
 C         4.583466        -0.974057        -1.553397
 C         3.586960        -0.520479        -0.556554
 O         2.346599        -0.212032        -1.220783
 C         1.516501         0.289111        -0.188400
 C         0.034138         0.519796        -0.458751
 C         2.433494         1.400744         0.495220
 C         3.646460         0.432452         0.636737
 C         2.922200        -0.969517         0.828066
 O         1.568306        -0.788148         0.757871
 H         4.660373        -2.037828        -1.717482
 H         4.323279        -0.409061        -2.341878
 H         5.558563        -0.653087        -1.231053
 H        -0.248556         0.638182         0.625957
 H        -0.185484         1.412122        -1.119313
 H        -0.319696        -0.495988        -0.877282
 H         2.411658         2.305231        -0.004471
 H         2.151123         1.560310         1.493427
 H         4.602041         0.416914         1.188513
 H         3.409471        -1.622526         1.623105
