19
Iteration:  2543
 C         4.525244        -0.942985        -1.501872
 C         3.501550        -0.479273        -0.587250
 O         2.229069        -0.328423        -1.186566
 C         1.493697         0.170561        -0.121507
 C         0.111854         0.552519        -0.598591
 C         2.347155         1.348450         0.588083
 C         3.602631         0.464556         0.540727
 C         3.151004        -0.917450         0.788019
 O         1.687119        -0.709901         0.875094
 H         4.722157        -0.303521        -2.372731
 H         5.453674        -0.984652        -1.078747
 H         4.436343        -1.997496        -1.812835
 H        -0.559903         0.627933         0.318159
 H         0.114726         1.393217        -1.397394
 H        -0.478899        -0.172169        -1.273043
 H         2.471388         2.279383         0.046641
 H         2.037668         1.340417         1.623157
 H         4.565764         0.992447         0.773381
 H         3.461328        -1.674182         1.544795
