19
Iteration:  2559charge 0 multiplicity 1
 C         4.530695        -0.975239        -1.533227
 C         3.481518        -0.519557        -0.573593
 O         2.213784        -0.339956        -1.265955
 C         1.501939         0.268644        -0.138260
 C         0.059887         0.553633        -0.608306
 C         2.379030         1.334152         0.542122
 C         3.660774         0.602228         0.580333
 C         3.106291        -0.845241         0.887776
 O         1.699798        -0.890203         0.899756
 H         4.803648        -0.056742        -2.093348
 H         5.531339        -1.362670        -1.029062
 H         4.030892        -1.789458        -2.090042
 H        -0.559177         0.901498         0.184142
 H         0.225142         1.408785        -1.180692
 H        -0.221569        -0.333835        -1.092471
 H         2.414071         2.391254         0.015308
 H         1.902081         1.495094         1.566737
 H         4.634126         0.819111         0.955066
 H         3.659971        -1.574871         1.417761
