19
Iteration:  2877
 C         4.645953        -1.045953        -1.501094
 C         3.551042        -0.480712        -0.567653
 O         2.259362        -0.226946        -1.210110
 C         1.491195         0.225379        -0.130580
 C         0.006910         0.538654        -0.419679
 C         2.357727         1.390975         0.349334
 C         3.593866         0.547674         0.572846
 C         3.072484        -0.878296         0.855727
 O         1.669285        -0.910199         0.838190
 H         5.476129        -0.285142        -1.641339
 H         4.862618        -1.934563        -0.961677
 H         4.187143        -1.084360        -2.525240
 H        -0.284699         0.674242         0.629185
 H        -0.096343         1.413097        -1.075073
 H        -0.576030        -0.355254        -0.806711
 H         2.535666         2.149869        -0.526919
 H         1.945848         1.942487         1.297077
 H         4.474916         1.004979         0.960912
 H         3.667576        -1.662967         1.369506
