19
Iteration:   511
 C         4.603754        -1.041847        -1.381006
 C         3.494901        -0.467529        -0.607262
 O         2.177428        -0.484531        -1.210854
 C         1.475513         0.089802        -0.097688
 C         0.000974         0.174414        -0.284440
 C         2.212109         1.470117         0.059518
 C         3.616488         0.789484         0.325227
 C         3.260278        -0.588724         0.829628
 O         1.812721        -0.712523         1.133055
 H         5.405865        -1.363101        -0.671105
 H         4.043782        -1.760203        -1.994748
 H         5.007308        -0.316296        -2.091253
 H        -0.438459         0.835354         0.448256
 H        -0.129136         0.753452        -1.239419
 H        -0.490613        -0.754518        -0.354133
 H         2.226519         2.003818        -1.000056
 H         1.836070         2.055642         0.881835
 H         4.651967         1.254509         0.368967
 H         3.760553        -1.420545         1.455333
