19
Iteration:  3471charge 0 multiplicity 1
 C         4.628981        -1.089056        -1.416779
 C         3.478736        -0.528826        -0.590715
 O         2.202977        -0.438127        -1.237528
 C         1.489267         0.199071        -0.229762
 C        -0.050184         0.277532        -0.270237
 C         2.297279         1.444012         0.198690
 C         3.623302         0.655281         0.309396
 C         3.170574        -0.650221         0.838720
 O         1.770775        -0.658659         1.046327
 H         5.542003        -1.274238        -0.787391
 H         4.446797        -2.122765        -1.676193
 H         4.898058        -0.334977        -2.151440
 H        -0.360123         0.780757         0.701974
 H        -0.372894         0.983964        -1.049562
 H        -0.388857        -0.803012        -0.462476
 H         2.310570         2.428117        -0.342566
 H         2.094007         1.685858         1.272259
 H         4.569775         1.022900         0.603262
 H         3.705338        -1.264878         1.551434
