19
Iteration:  3277charge 0 multiplicity 1
 C         4.571421        -1.024254        -1.452319
 C         3.497223        -0.459331        -0.609193
 O         2.154143        -0.323944        -1.154547
 C         1.464164         0.181270        -0.077302
 C        -0.053046         0.296183        -0.376496
 C         2.353862         1.431080         0.148298
 C         3.651942         0.625882         0.420736
 C         3.202751        -0.741095         0.862538
 O         1.780092        -0.744088         0.999635
 H         5.588549        -0.541239        -1.482331
 H         4.934840        -2.082078        -1.098491
 H         4.204941        -1.070748        -2.469334
 H        -0.530939         0.485034         0.595834
 H        -0.060190         0.871455        -1.254689
 H        -0.361000        -0.745390        -0.617819
 H         2.547628         1.977005        -0.826945
 H         2.007981         2.174484         0.896715
 H         4.611789         1.012393         0.724372
 H         3.528255        -1.458741         1.699053
