19
Iteration:   406charge 0 multiplicity 1
 C         4.538334        -1.137081        -1.397255
 C         3.548588        -0.410462        -0.604129
 O         2.194800        -0.472090        -1.160815
 C         1.463792         0.076120        -0.038554
 C         0.026351         0.140887        -0.260875
 C         2.180467         1.398342         0.022416
 C         3.511692         0.830890         0.209627
 C         3.273019        -0.492009         0.900521
 O         1.917183        -0.667929         1.078476
 H         4.095898        -1.535221        -2.283525
 H         5.371255        -0.509180        -1.743914
 H         5.041014        -1.901201        -0.754287
 H        -0.651175         0.487206         0.536709
 H        -0.228134         0.832409        -1.113436
 H        -0.441320        -0.804472        -0.578121
 H         1.980836         1.928408        -0.903454
 H         1.726518         1.939243         0.849693
 H         4.553468         1.217031         0.354736
 H         3.942665        -1.044667         1.657040
