19
Iteration:  4704
 C         4.658598        -0.995042        -1.506202
 C         3.505423        -0.568166        -0.516732
 O         2.175716        -0.577699        -1.151743
 C         1.458009         0.054770        -0.141767
 C        -0.085394         0.193005        -0.255450
 C         2.307134         1.404291         0.055019
 C         3.636707         0.738965         0.216826
 C         3.199418        -0.589965         0.925763
 O         1.811924        -0.511576         1.076019
 H         5.564146        -1.179137        -0.885256
 H         4.475672        -1.899785        -2.023441
 H         4.857829        -0.122816        -2.226095
 H        -0.507867         0.633385         0.690802
 H        -0.378671         0.887798        -1.077091
 H        -0.593390        -0.810343        -0.289861
 H         2.117262         2.153103        -0.827565
 H         1.994390         2.053734         0.914916
 H         4.566060         1.320394         0.508729
 H         3.629055        -1.220496         1.778263
