19
Iteration:  3180
 C         4.613880        -1.037903        -1.401738
 C         3.504959        -0.458272        -0.604979
 O         2.216214        -0.330542        -1.266543
 C         1.463378         0.214674        -0.093769
 C        -0.068503         0.345066        -0.317194
 C         2.356384         1.420757         0.207581
 C         3.649461         0.650545         0.430023
 C         3.136071        -0.772049         0.845902
 O         1.743813        -0.797672         0.968955
 H         5.066262        -0.417813        -2.254816
 H         5.504737        -1.301605        -0.738061
 H         4.338944        -1.992969        -1.848176
 H        -0.368988         0.646715         0.663024
 H        -0.224140         0.884798        -1.182218
 H        -0.583436        -0.608968        -0.445119
 H         2.490692         2.059331        -0.654493
 H         1.974886         1.964597         0.995857
 H         4.526023         1.158404         0.719750
 H         3.726969        -1.447565         1.393146
