19
Iteration:  2350
 C         4.694208        -1.049152        -1.271264
 C         3.436162        -0.427418        -0.642672
 O         2.252560        -0.071219        -1.273542
 C         1.430249         0.207500        -0.055391
 C        -0.008800         0.634836        -0.467698
 C         2.363656         1.338703         0.476551
 C         3.688126         0.419865         0.525326
 C         3.124028        -0.976191         0.662891
 O         1.673646        -0.919549         0.811523
 H         4.806573        -2.074174        -0.979612
 H         4.558223        -1.318752        -2.399525
 H         5.581410        -0.448019        -1.178924
 H        -0.650590         0.937448         0.343500
 H        -0.028251         1.587245        -1.042979
 H        -0.680327        -0.026234        -0.936529
 H         2.435134         2.264562        -0.242513
 H         2.027903         1.621871         1.531585
 H         4.616554         0.577545         1.047437
 H         3.464205        -1.800225         1.187128
