19
Iteration:  3142
 C         4.607305        -1.005570        -1.529654
 C         3.473055        -0.536374        -0.565584
 O         2.213603        -0.373915        -1.202804
 C         1.487973         0.279277        -0.224772
 C         0.066354         0.343855        -0.411313
 C         2.370411         1.376542         0.279516
 C         3.630097         0.658326         0.439560
 C         3.120455        -0.737008         0.902093
 O         1.709890        -0.804580         1.024748
 H         4.338848        -0.877780        -2.563934
 H         5.536066        -0.470529        -1.243167
 H         4.589082        -2.134733        -1.371946
 H        -0.473129         0.867460         0.428329
 H        -0.344038         1.213334        -1.083484
 H        -0.350159        -0.645243        -0.550905
 H         2.188448         2.253970        -0.425942
 H         1.960540         1.697879         1.388769
 H         4.637675         1.098314         0.668672
 H         3.756658        -1.453025         1.602123
