19
Iteration:  3762charge 0 multiplicity 1
 C         4.610720        -1.058127        -1.427059
 C         3.474840        -0.521399        -0.606943
 O         2.212945        -0.518805        -1.203665
 C         1.478910         0.121907        -0.123777
 C        -0.018173         0.388371        -0.350952
 C         2.251562         1.440835         0.244125
 C         3.603588         0.738131         0.276806
 C         3.198211        -0.672316         0.823762
 O         1.802257        -0.718035         1.055798
 H         5.343215        -1.549937        -0.741613
 H         4.253660        -1.513747        -2.277034
 H         5.358250        -0.281249        -1.723623
 H        -0.431318         0.783571         0.590350
 H        -0.143971         1.080197        -1.232537
 H        -0.509080        -0.578062        -0.623835
 H         2.217980         2.203022        -0.533853
 H         1.829244         1.795530         1.288430
 H         4.635202         1.135922         0.623792
 H         3.689903        -1.294827         1.641332
