19
Iteration:  3422
 C         4.528280        -1.066595        -1.447962
 C         3.459394        -0.440458        -0.596986
 O         2.175119        -0.393569        -1.184090
 C         1.494124         0.182363        -0.073363
 C        -0.040314         0.282751        -0.413595
 C         2.297535         1.476560         0.136350
 C         3.643801         0.698202         0.340886
 C         3.226760        -0.708256         0.893087
 O         1.832420        -0.808043         1.096116
 H         5.040888        -1.902687        -0.928373
 H         4.173717        -1.768919        -2.216162
 H         5.341534        -0.272102        -1.679124
 H        -0.394068         0.689486         0.503824
 H        -0.201244         1.058469        -1.146632
 H        -0.403777        -0.670497        -0.579317
 H         2.405111         1.974361        -0.802204
 H         1.990230         2.196405         0.835740
 H         4.515069         1.318704         0.485901
 H         3.779029        -1.249023         1.557785
