19
Iteration:  2373charge 0 multiplicity 1
 C         4.641288        -0.979345        -1.459379
 C         3.445575        -0.506791        -0.586920
 O         2.261801        -0.162421        -1.285500
 C         1.551353         0.306224        -0.170553
 C         0.133042         0.528539        -0.404037
 C         2.426053         1.363266         0.507478
 C         3.593553         0.424045         0.648313
 C         3.036312        -0.947179         0.802074
 O         1.570266        -0.859130         0.763421
 H         4.719019        -2.047372        -1.396633
 H         4.557582        -0.886628        -2.563108
 H         5.552303        -0.540413        -1.136885
 H        -0.453379         0.707311         0.489206
 H        -0.099772         1.464595        -0.994017
 H        -0.323363        -0.345739        -0.824839
 H         2.771035         2.178358        -0.204208
 H         1.863885         1.807040         1.360547
 H         4.537704         0.852509         1.023345
 H         3.313942        -1.863754         1.227893
