19
Iteration:   810
 C         4.602257        -0.995340        -1.405995
 C         3.466330        -0.459608        -0.603793
 O         2.228091        -0.301606        -1.271367
 C         1.443424         0.215867        -0.058423
 C         0.009620         0.277624        -0.374508
 C         2.405790         1.398134         0.211958
 C         3.606886         0.598451         0.493662
 C         3.095090        -0.861164         0.799603
 O         1.754403        -0.700106         0.988996
 H         4.797391        -0.210140        -2.173150
 H         5.448341        -1.099659        -0.748634
 H         4.297874        -1.928318        -1.973601
 H        -0.470060         0.669461         0.504046
 H        -0.060920         0.994106        -1.171649
 H        -0.270319        -0.735910        -0.677997
 H         2.552252         1.987221        -0.694493
 H         2.048792         2.159385         1.042510
 H         4.517663         0.928032         0.891371
 H         3.546912        -1.576876         1.448536
