19
Iteration:   545charge 0 multiplicity 1
 C         4.633063        -1.112341        -1.457161
 C         3.520279        -0.549342        -0.633418
 O         2.161047        -0.578328        -1.163257
 C         1.475797         0.161085        -0.058215
 C        -0.005410         0.248716        -0.378471
 C         2.182044         1.449185         0.299681
 C         3.580537         0.812082         0.254581
 C         3.271929        -0.502640         0.837923
 O         1.812532        -0.680877         1.015481
 H         5.640652        -0.642091        -1.267384
 H         4.892086        -2.172257        -1.166753
 H         4.391081        -0.950444        -2.544978
 H        -0.473359         0.597638         0.502142
 H        -0.016220         0.862933        -1.279858
 H        -0.363900        -0.714144        -0.607466
 H         1.999616         2.394733        -0.370265
 H         1.782645         1.708002         1.254479
 H         4.560278         1.248924         0.431805
 H         3.792850        -1.024163         1.713147
