19
Iteration:  1511charge 0 multiplicity 1
 C         4.621600        -1.054280        -1.394574
 C         3.506171        -0.432203        -0.572159
 O         2.275818         0.101220        -1.284022
 C         1.489311         0.353971        -0.129388
 C         0.107066         0.636832        -0.496893
 C         2.570409         1.388790         0.635206
 C         3.614964         0.250358         0.769219
 C         2.885726        -1.113059         0.648975
 O         1.544963        -0.955795         0.631633
 H         5.577586        -0.930513        -0.930694
 H         4.483105        -2.182494        -1.121937
 H         4.712940        -0.828687        -2.484808
 H        -0.480529         0.606202         0.433133
 H        -0.069931         1.625731        -1.000510
 H        -0.242216        -0.134715        -1.149728
 H         2.902369         2.011585        -0.212388
 H         2.439778         2.028995         1.507436
 H         4.536425         0.344052         1.371908
 H         3.139025        -1.977804         1.166758
