19
Iteration:   641
 C         4.652644        -1.098662        -1.424381
 C         3.472653        -0.481252        -0.644189
 O         2.172279        -0.400998        -1.192514
 C         1.453903         0.114784        -0.046034
 C        -0.048967         0.281582        -0.432108
 C         2.226165         1.443940         0.265550
 C         3.570082         0.786787         0.323416
 C         3.229219        -0.682163         0.844569
 O         1.865130        -0.771942         1.070832
 H         4.391202        -1.578186        -2.342080
 H         5.403786        -0.353088        -1.660532
 H         4.962294        -1.874301        -0.840556
 H        -0.469579         0.757311         0.456552
 H         0.114691         1.027662        -1.276580
 H        -0.584480        -0.584356        -0.783997
 H         2.189476         2.115554        -0.681063
 H         1.953492         2.044324         1.089392
 H         4.516603         1.228539         0.507994
 H         3.936924        -1.154795         1.520553
