19
Iteration:  3874charge 0 multiplicity 1
 C         4.671461        -1.102494        -1.332364
 C         3.456631        -0.449006        -0.688573
 O         2.153375        -0.392388        -1.232074
 C         1.427211         0.186619        -0.081088
 C         0.001090         0.353184        -0.382228
 C         2.291061         1.360163         0.321074
 C         3.569772         0.668986         0.316252
 C         3.243161        -0.680298         0.787578
 O         1.813449        -0.753932         1.007535
 H         5.623391        -0.552520        -0.993285
 H         4.585165        -2.183726        -1.022670
 H         4.592462        -1.124330        -2.460405
 H        -0.383312         0.977938         0.443207
 H        -0.194009         1.034643        -1.179228
 H        -0.514646        -0.528542        -0.700696
 H         2.339755         2.214798        -0.436810
 H         2.009583         1.740374         1.316003
 H         4.480716         1.265087         0.440542
 H         3.748266        -1.305589         1.574299
