19
Iteration:   782
 C         4.630282        -1.123322        -1.451029
 C         3.517634        -0.495478        -0.546700
 O         2.253188        -0.413988        -1.282716
 C         1.436756         0.236460        -0.133412
 C        -0.017068         0.409356        -0.381794
 C         2.284565         1.396319         0.376709
 C         3.592001         0.721783         0.384921
 C         3.180525        -0.693895         0.873082
 O         1.768541        -0.807004         0.909590
 H         5.341270        -0.363025        -1.767614
 H         5.058086        -2.068895        -0.970950
 H         4.139018        -1.251552        -2.382949
 H        -0.415109         0.602046         0.666834
 H        -0.255614         1.165182        -1.209262
 H        -0.436977        -0.572570        -0.631798
 H         2.189060         2.224561        -0.348347
 H         1.929983         1.666678         1.295357
 H         4.612067         1.080786         0.756897
 H         3.679364        -1.119056         1.773067
