19
Iteration:  3679charge 0 multiplicity 1
 C         4.507504        -1.174461        -1.436420
 C         3.499277        -0.476205        -0.630032
 O         2.201532        -0.381981        -1.192291
 C         1.435462         0.159781        -0.060376
 C         0.018086         0.190503        -0.472909
 C         2.298626         1.494290         0.275411
 C         3.584919         0.738714         0.333280
 C         3.274563        -0.614726         0.851421
 O         1.825274        -0.680416         1.085964
 H         4.777192        -2.123776        -0.909177
 H         4.040767        -1.653034        -2.388312
 H         5.331709        -0.367272        -1.610115
 H        -0.807145         0.519787         0.235533
 H        -0.100929         0.801730        -1.364465
 H        -0.335495        -0.840050        -0.663677
 H         2.242441         2.340990        -0.464196
 H         2.151218         1.898243         1.223477
 H         4.561918         1.150425         0.591741
 H         3.973444        -1.291594         1.410331
