19
Iteration:  2840charge 0 multiplicity 1
 C         4.541730        -0.931160        -1.547853
 C         3.494126        -0.489020        -0.590266
 O         2.224737        -0.249363        -1.176765
 C         1.476850         0.301214        -0.167694
 C         0.126739         0.377690        -0.572198
 C         2.412753         1.343122         0.482585
 C         3.678652         0.457188         0.522301
 C         3.065209        -0.889909         0.827166
 O         1.609080        -0.743722         0.962087
 H         5.246420        -0.176141        -1.895264
 H         5.305431        -1.565169        -1.004408
 H         4.303644        -1.677055        -2.257541
 H        -0.477415         0.746186         0.312757
 H        -0.086862         1.309678        -1.178278
 H        -0.331208        -0.584715        -0.942634
 H         2.555904         2.220949        -0.092574
 H         2.239668         1.635547         1.490147
 H         4.637996         0.952767         0.854428
 H         3.388353        -1.754015         1.378257
