19
Iteration:  4087
 C         4.523123        -1.051245        -1.502077
 C         3.579468        -0.624778        -0.550778
 O         2.204958        -0.523085        -1.151197
 C         1.489883         0.163101        -0.123251
 C        -0.014907         0.261610        -0.429735
 C         2.245762         1.412828         0.207074
 C         3.568967         0.707060         0.318453
 C         3.273774        -0.583355         0.936868
 O         1.775546        -0.597722         1.032148
 H         4.115211        -1.192423        -2.520936
 H         5.472599        -0.272199        -1.616934
 H         5.060742        -2.027887        -1.380286
 H        -0.186891         0.755800         0.494223
 H        -0.246685         0.953817        -1.182128
 H        -0.483417        -0.670031        -0.646504
 H         2.164074         2.219773        -0.415909
 H         1.785642         1.711769         1.189420
 H         4.442866         1.375274         0.593225
 H         3.878351        -1.101904         1.794424
