19
Iteration:   741charge 0 multiplicity 1
 C         4.466408        -1.106174        -1.363853
 C         3.502648        -0.413127        -0.624349
 O         2.186119        -0.277553        -1.246288
 C         1.485637         0.171524        -0.132042
 C        -0.049025         0.284584        -0.473389
 C         2.313244         1.370579         0.291805
 C         3.641422         0.713947         0.418626
 C         3.203300        -0.747992         0.844328
 O         1.880555        -0.799295         1.048150
 H         5.258706        -1.377215        -0.689703
 H         4.046396        -2.025221        -1.765100
 H         4.881301        -0.448924        -2.156067
 H        -0.658214         0.667054         0.402620
 H        -0.190793         1.050007        -1.295743
 H        -0.187063        -0.788350        -0.823768
 H         2.336599         2.155885        -0.574118
 H         1.952997         2.001134         1.169204
 H         4.562722         1.367871         0.595922
 H         3.852679        -1.406480         1.454651
