19
Iteration:  3750charge 0 multiplicity 1
 C         4.650220        -1.039564        -1.379160
 C         3.506200        -0.453838        -0.619976
 O         2.164091        -0.425529        -1.202257
 C         1.441537         0.158456        -0.072222
 C         0.020229         0.351566        -0.326416
 C         2.245878         1.403672         0.095777
 C         3.579193         0.677985         0.339681
 C         3.231328        -0.726543         0.897893
 O         1.808220        -0.753792         1.014160
 H         5.038653        -1.955938        -0.891878
 H         4.319247        -1.601824        -2.190738
 H         5.268576        -0.242170        -1.758919
 H        -0.423474         0.841273         0.568366
 H        -0.120061         1.175955        -1.148834
 H        -0.643501        -0.565340        -0.467184
 H         2.120461         2.060218        -0.776456
 H         1.893420         2.044803         1.055598
 H         4.600507         1.269818         0.545447
 H         3.977247        -1.376875         1.527578
