19
Iteration:  3445
 C         4.637443        -1.091874        -1.430203
 C         3.512722        -0.474913        -0.578499
 O         2.195394        -0.495142        -1.226719
 C         1.463628         0.125571        -0.070202
 C        -0.021730         0.379247        -0.255142
 C         2.198512         1.420730         0.136248
 C         3.628016         0.714811         0.364980
 C         3.235831        -0.633014         0.848743
 O         1.788407        -0.744888         0.957356
 H         5.330471        -1.825737        -0.931261
 H         4.146234        -1.900679        -2.011992
 H         5.212640        -0.169988        -1.882389
 H        -0.398587         0.891293         0.618873
 H         0.003388         1.156264        -1.036666
 H        -0.565030        -0.505654        -0.517475
 H         2.207910         2.059190        -0.701245
 H         1.945326         2.050606         0.975291
 H         4.560537         1.285438         0.607727
 H         3.646067        -1.247294         1.674638
