19
Iteration:  2480
 C         4.643161        -1.126808        -1.378635
 C         3.574448        -0.454341        -0.567763
 O         2.327367        -0.158337        -1.380654
 C         1.524755         0.302756        -0.190300
 C         0.034933         0.477090        -0.281959
 C         2.352544         1.367013         0.456601
 C         3.573515         0.534504         0.614343
 C         3.028824        -0.933799         0.713365
 O         1.612494        -0.802893         0.766697
 H         4.172791        -1.223037        -2.388343
 H         5.618729        -0.460702        -1.239962
 H         4.810305        -2.204597        -1.155847
 H        -0.249071         0.721931         0.731997
 H        -0.369789         1.218745        -1.005790
 H        -0.378919        -0.473526        -0.561073
 H         2.350956         2.411209        -0.092788
 H         1.929242         1.585808         1.517370
 H         4.510535         0.885835         1.085255
 H         3.465080        -1.826995         1.207159
