19
Iteration:  3461
 C         4.656929        -1.109743        -1.433895
 C         3.489644        -0.516538        -0.622926
 O         2.243512        -0.503561        -1.268948
 C         1.460310         0.175138        -0.199704
 C        -0.020111         0.362403        -0.259546
 C         2.305841         1.414393         0.254466
 C         3.561403         0.723501         0.316248
 C         3.197167        -0.682889         0.926471
 O         1.781210        -0.644358         0.996182
 H         5.407865        -1.298008        -0.675377
 H         4.279043        -1.965625        -2.036971
 H         4.994378        -0.393169        -2.138100
 H        -0.389667         0.623832         0.779815
 H        -0.433628         0.979975        -1.058686
 H        -0.626930        -0.605665        -0.330589
 H         2.197069         2.232320        -0.559213
 H         1.820927         1.734247         1.209932
 H         4.495455         1.201022         0.445758
 H         3.733461        -1.292312         1.627767
