19
Iteration:  1222
 C         4.667151        -1.118961        -1.389270
 C         3.522519        -0.420368        -0.647304
 O         2.315142        -0.154103        -1.334600
 C         1.426629         0.264364        -0.117163
 C         0.036023         0.794011        -0.501544
 C         2.302515         1.241833         0.723684
 C         3.532355         0.445003         0.601059
 C         3.138715        -0.953661         0.744806
 O         1.688812        -0.932008         0.722174
 H         5.572878        -0.395339        -1.522730
 H         4.921516        -2.028290        -0.917751
 H         4.190521        -1.220586        -2.422292
 H        -0.503630         1.175965         0.343759
 H         0.118288         1.529908        -1.323204
 H        -0.548764        -0.023106        -0.801125
 H         2.518872         2.245904         0.307959
 H         1.809354         1.362124         1.683532
 H         4.479127         0.848438         0.935834
 H         3.550703        -1.900532         1.210383
