19
Iteration:  1120
 C         4.613610        -0.980397        -1.487643
 C         3.486207        -0.484288        -0.583690
 O         2.230833        -0.140431        -1.183900
 C         1.422221         0.216098        -0.125371
 C         0.076443         0.635129        -0.626749
 C         2.371759         1.321346         0.534850
 C         3.607292         0.442026         0.619506
 C         3.126574        -0.984072         0.786337
 O         1.675819        -0.934895         0.881871
 H         4.705040        -2.044456        -1.479294
 H         4.497197        -0.561032        -2.577415
 H         5.515881        -0.641300        -0.978113
 H        -0.542459         0.946938         0.239118
 H         0.267075         1.590225        -1.085513
 H        -0.433684         0.005735        -1.408597
 H         2.477571         2.143255        -0.343901
 H         2.182201         1.939472         1.553019
 H         4.512133         0.989402         1.010925
 H         3.540575        -1.915661         1.176509
