19
Iteration:  1906
 C         4.656525        -1.055766        -1.358292
 C         3.529378        -0.410758        -0.558499
 O         2.312292        -0.116606        -1.318371
 C         1.466682         0.252967        -0.132440
 C         0.081500         0.731937        -0.324354
 C         2.435651         1.310999         0.513889
 C         3.609639         0.440203         0.669207
 C         3.014948        -0.966444         0.721599
 O         1.538314        -1.022308         0.621930
 H         4.195338        -1.328025        -2.276649
 H         5.389122        -0.352389        -1.689413
 H         5.121542        -1.939504        -0.992501
 H        -0.459211         0.917199         0.550047
 H         0.187579         1.653411        -0.903000
 H        -0.429592         0.106759        -0.948391
 H         2.771309         2.107682        -0.206976
 H         1.816167         1.649897         1.404200
 H         4.543522         0.788186         1.095760
 H         3.400363        -1.777319         1.402597
