19
Iteration:  2783
 C         4.604624        -1.112026        -1.441233
 C         3.600919        -0.440553        -0.576605
 O         2.312017        -0.217909        -1.341293
 C         1.505544         0.261207        -0.197632
 C         0.027405         0.549856        -0.376008
 C         2.248462         1.412733         0.482492
 C         3.623440         0.561167         0.622858
 C         3.062966        -0.851395         0.766836
 O         1.664453        -0.898883         0.798377
 H         4.299639        -1.056132        -2.438968
 H         5.625837        -0.900688        -1.139967
 H         4.462162        -2.225140        -1.369800
 H        -0.153731         0.884224         0.661962
 H        -0.135517         1.322641        -1.191552
 H        -0.491781        -0.378980        -0.561736
 H         2.237645         2.324623         0.023343
 H         1.982402         1.463888         1.475768
 H         4.650028         0.733974         1.066605
 H         3.502970        -1.621341         1.456863
