19
Iteration:  2159charge 0 multiplicity 1
 C         4.666270        -1.071132        -1.509411
 C         3.531455        -0.542260        -0.574310
 O         2.306798        -0.050856        -1.221127
 C         1.512188         0.364433        -0.168208
 C         0.099510         0.558533        -0.533170
 C         2.410955         1.311784         0.682012
 C         3.587140         0.387538         0.544501
 C         2.969451        -1.020284         0.739501
 O         1.554754        -0.768354         0.775418
 H         4.515959        -0.748674        -2.630554
 H         5.581645        -0.679193        -1.102121
 H         4.637305        -2.222024        -1.410809
 H        -0.527279         0.705223         0.314082
 H        -0.063335         1.314074        -1.176800
 H        -0.125944        -0.388191        -0.986239
 H         2.484016         2.363024         0.405351
 H         2.241636         1.355492         1.789702
 H         4.504719         0.659476         1.047245
 H         3.320452        -1.860162         1.378809
