19
Iteration:  2304charge 0 multiplicity 1
 C         4.500618        -1.059789        -1.511022
 C         3.501503        -0.450140        -0.538299
 O         2.389389        -0.132778        -1.266765
 C         1.531333         0.288566        -0.237949
 C         0.057194         0.531286        -0.458854
 C         2.383103         1.339725         0.571291
 C         3.610118         0.427411         0.696660
 C         3.032850        -0.935179         0.777089
 O         1.635393        -0.825469         0.750803
 H         5.257716        -1.557989        -0.854507
 H         4.217375        -1.917310        -2.182923
 H         4.940856        -0.171153        -2.039408
 H        -0.487843         0.817912         0.421143
 H        -0.116844         1.288735        -1.156169
 H        -0.494863        -0.309643        -0.824222
 H         2.580355         2.250226        -0.089567
 H         1.978754         1.559502         1.628002
 H         4.516542         0.756500         1.170735
 H         3.495693        -1.837097         1.264628
