19
Iteration:  3250
 C         4.493694        -1.132330        -1.508394
 C         3.513776        -0.488424        -0.554457
 O         2.245489        -0.355049        -1.241465
 C         1.496926         0.174165        -0.098277
 C         0.035669         0.283084        -0.385850
 C         2.300906         1.478384         0.274164
 C         3.599407         0.717631         0.416034
 C         3.208259        -0.707575         0.898556
 O         1.766147        -0.730831         0.997777
 H         5.291336        -0.422113        -1.717424
 H         4.848565        -2.125658        -1.274244
 H         3.908913        -1.273991        -2.469220
 H        -0.498619         0.427234         0.544447
 H         0.042569         0.809117        -1.402794
 H        -0.284204        -0.734763        -0.722475
 H         2.371901         2.184435        -0.553522
 H         1.956305         2.014296         1.208350
 H         4.527126         1.218194         0.795276
 H         3.552162        -1.372388         1.671509
