19
Iteration:  2215
 C         4.661851        -1.050810        -1.409504
 C         3.528747        -0.537714        -0.573694
 O         2.259738        -0.109770        -1.290819
 C         1.483429         0.244094        -0.126289
 C         0.102268         0.732464        -0.389162
 C         2.336811         1.358401         0.521919
 C         3.634469         0.514530         0.657454
 C         3.066364        -1.027505         0.753839
 O         1.543200        -0.963436         0.680612
 H         5.398933        -0.223424        -1.675889
 H         5.294819        -1.742684        -0.824163
 H         4.224296        -1.571104        -2.341475
 H        -0.367382         0.934981         0.527527
 H         0.248504         1.466923        -1.055601
 H        -0.360478        -0.096174        -0.921623
 H         2.420117         2.112104        -0.283678
 H         1.967697         1.750657         1.509730
 H         4.657624         0.751715         0.995339
 H         3.574921        -1.769799         1.287143
