19
Iteration:  3583charge 0 multiplicity 1
 C         4.603796        -1.050205        -1.343998
 C         3.424785        -0.453082        -0.647423
 O         2.153746        -0.349467        -1.243132
 C         1.440955         0.142772        -0.041307
 C         0.018104         0.292379        -0.319830
 C         2.342216         1.452148         0.122932
 C         3.620119         0.654241         0.316961
 C         3.245964        -0.785620         0.841168
 O         1.805336        -0.693341         1.037431
 H         5.386677        -0.955053        -0.615379
 H         4.427968        -2.164289        -1.335566
 H         4.699065        -0.455384        -2.157991
 H        -0.739102         0.598992         0.519256
 H        -0.153605         0.903007        -1.266224
 H        -0.502492        -0.734704        -0.440684
 H         2.333931         2.037813        -0.921160
 H         2.038582         2.154616         0.923243
 H         4.681549         0.994020         0.512000
 H         3.814047        -1.476832         1.609187
