19
Iteration:  4712
 C         4.661376        -1.025715        -1.465884
 C         3.477988        -0.529534        -0.629420
 O         2.217508        -0.594579        -1.167285
 C         1.415004         0.130358        -0.096878
 C        -0.063729         0.170007        -0.230276
 C         2.274662         1.452686         0.066896
 C         3.626336         0.693482         0.231873
 C         3.208148        -0.560148         0.965968
 O         1.826397        -0.534618         1.059823
 H         5.493131        -0.899526        -0.762349
 H         4.433085        -1.955516        -1.911547
 H         4.824804        -0.313162        -2.320662
 H        -0.538857         0.689588         0.616948
 H        -0.342241         0.761530        -1.112070
 H        -0.624992        -0.808954        -0.409312
 H         2.324476         2.063071        -0.746331
 H         1.977965         1.837700         0.973122
 H         4.608041         1.220405         0.351357
 H         3.630546        -1.257087         1.615625
