19
Iteration:  2019
 C         4.557236        -1.064593        -1.457989
 C         3.527236        -0.525517        -0.547470
 O         2.328476        -0.140664        -1.306608
 C         1.526945         0.283474        -0.184097
 C         0.111775         0.724708        -0.500065
 C         2.367783         1.331967         0.647520
 C         3.623248         0.463599         0.717154
 C         3.017541        -0.997974         0.729869
 O         1.583231        -0.915328         0.663767
 H         4.505344        -2.173732        -1.610752
 H         4.337796        -0.589122        -2.326195
 H         5.585328        -0.859096        -1.117880
 H        -0.210623         1.128592         0.510091
 H         0.115975         1.578381        -1.160630
 H        -0.503641        -0.151808        -0.939049
 H         2.649918         2.392335         0.493965
 H         2.100111         1.429390         1.748204
 H         4.500978         0.791149         1.249328
 H         3.230550        -1.994086         1.241449
