19
Iteration:  3657
 C         4.507397        -1.153733        -1.468340
 C         3.510947        -0.406438        -0.591094
 O         2.139422        -0.391428        -1.118310
 C         1.475635         0.175230        -0.037451
 C         0.066337         0.236210        -0.459595
 C         2.256735         1.449966         0.160581
 C         3.676112         0.808784         0.397664
 C         3.249607        -0.676900         0.904119
 O         1.837459        -0.788778         1.019037
 H         4.715256        -2.080546        -0.897752
 H         3.871731        -1.626640        -2.304055
 H         5.271918        -0.361148        -1.769764
 H        -0.710421         0.701828         0.237376
 H         0.021914         0.956028        -1.265576
 H        -0.392697        -0.690051        -0.851829
 H         1.921248         1.864159        -0.823000
 H         1.929376         2.138767         0.857356
 H         4.691776         1.338513         0.517987
 H         3.825930        -1.308424         1.706103
