19
Iteration:  1046
 C         4.595059        -1.097068        -1.419483
 C         3.489960        -0.367902        -0.615715
 O         2.288584        -0.064586        -1.239379
 C         1.464309         0.258097        -0.076554
 C        -0.013751         0.336684        -0.421157
 C         2.502336         1.423594         0.417719
 C         3.614084         0.401436         0.694184
 C         3.032835        -0.926246         0.714897
 O         1.652412        -0.772941         0.759883
 H         4.471252        -0.837030        -2.496405
 H         5.613238        -0.705515        -1.018024
 H         4.801660        -2.214342        -1.263380
 H        -0.582921         0.780438         0.385290
 H        -0.275831         1.028866        -1.210103
 H        -0.324032        -0.685495        -0.688614
 H         2.793722         2.007101        -0.420363
 H         2.035053         2.026472         1.105471
 H         4.499549         0.809304         1.273594
 H         3.374344        -1.896452         1.151282
