19
Iteration:   319charge 0 multiplicity 1
 C         4.528876        -1.179552        -1.462153
 C         3.588180        -0.352802        -0.584020
 O         2.176567        -0.653412        -1.063520
 C         1.463619         0.038831        -0.088271
 C        -0.110599         0.142123        -0.389592
 C         2.132584         1.427118         0.079114
 C         3.538405         0.926430         0.189095
 C         3.400550        -0.436698         0.943977
 O         1.938140        -0.632655         1.103138
 H         5.306660        -0.628853        -1.877669
 H         4.916209        -1.975343        -0.865233
 H         3.928378        -1.601534        -2.256491
 H        -0.503079         0.855419         0.349126
 H        -0.189426         0.660862        -1.411491
 H        -0.480914        -0.866769        -0.336010
 H         2.067115         1.967954        -0.880932
 H         1.906259         1.942302         0.995187
 H         4.411711         1.574281         0.353678
 H         3.992327        -0.892337         1.726568
