19
Iteration:  2108
 C         4.561016        -1.057479        -1.588617
 C         3.561642        -0.509987        -0.538317
 O         2.389574        -0.122783        -1.230730
 C         1.461510         0.226825        -0.099312
 C         0.171570         0.749376        -0.563555
 C         2.321230         1.345929         0.555367
 C         3.613355         0.409784         0.736377
 C         3.026974        -0.963990         0.740264
 O         1.572236        -0.955838         0.791831
 H         3.964998        -1.092625        -2.465654
 H         5.418952        -0.435583        -1.612692
 H         4.888447        -2.048341        -1.290304
 H        -0.439878         0.958174         0.371537
 H         0.081841         1.732600        -1.145848
 H        -0.408549        -0.148989        -1.051438
 H         2.439171         2.277394        -0.071516
 H         1.768220         1.799931         1.447728
 H         4.559952         0.713997         1.195669
 H         3.415676        -1.664144         1.412731
