19
Iteration:  3018charge 0 multiplicity 1
 C         4.657094        -0.982926        -1.422917
 C         3.507947        -0.547494        -0.561201
 O         2.135672        -0.304959        -1.279691
 C         1.463149         0.238810        -0.113995
 C         0.020027         0.491994        -0.403156
 C         2.347159         1.294772         0.397904
 C         3.663645         0.550735         0.436990
 C         3.140102        -0.782572         0.817113
 O         1.721618        -0.770019         0.924450
 H         5.066624        -2.008251        -1.184376
 H         4.240887        -1.052023        -2.405576
 H         5.531876        -0.417741        -1.165344
 H        -0.646848         0.695724         0.465208
 H        -0.126372         1.152551        -1.306741
 H        -0.427097        -0.462265        -0.859238
 H         2.404020         2.152344        -0.326976
 H         2.132250         1.714332         1.394802
 H         4.555671         1.222684         0.772520
 H         3.641842        -1.711850         1.167961
