19
Iteration:  3435charge 0 multiplicity 1
 C         4.596260        -1.105241        -1.412364
 C         3.518132        -0.476540        -0.594211
 O         2.187052        -0.419489        -1.152264
 C         1.434921         0.103481        -0.092968
 C         0.005351         0.388398        -0.295078
 C         2.321662         1.445509         0.076761
 C         3.547088         0.757570         0.337372
 C         3.214583        -0.657530         0.870463
 O         1.818481        -0.814326         1.019941
 H         5.226795        -1.667889        -0.666932
 H         4.096151        -1.503378        -2.317754
 H         5.264176        -0.315316        -2.024184
 H        -0.538063         0.724185         0.569527
 H        -0.130461         1.002742        -1.203679
 H        -0.620761        -0.474069        -0.597869
 H         2.190821         1.939980        -0.832797
 H         1.959561         1.997450         0.953842
 H         4.523875         1.074172         0.758843
 H         3.967623        -1.262894         1.482061
