19
Iteration:   440charge 0 multiplicity 1
 C         4.547025        -1.188767        -1.440435
 C         3.489751        -0.425447        -0.617505
 O         2.140503        -0.518444        -1.110285
 C         1.459618         0.109683        -0.064148
 C        -0.053529         0.132995        -0.407452
 C         2.182876         1.499420         0.144928
 C         3.570206         0.839450         0.294227
 C         3.310418        -0.514492         0.881995
 O         1.969281        -0.659313         1.060957
 H         4.221006        -2.201828        -1.560712
 H         4.700823        -0.610301        -2.340312
 H         5.490916        -1.235007        -0.855877
 H        -0.664711         0.642697         0.409565
 H        -0.087403         0.714700        -1.370430
 H        -0.245156        -0.972406        -0.582963
 H         2.087354         2.081299        -0.750903
 H         1.768300         1.931111         1.114881
 H         4.553441         1.320506         0.349797
 H         4.028875        -1.012173         1.562735
