19
Iteration:  4105
 C         4.592291        -1.159008        -1.549908
 C         3.526910        -0.458079        -0.597307
 O         2.258133        -0.515347        -1.199703
 C         1.458169         0.104098        -0.164334
 C        -0.015562         0.274293        -0.350187
 C         2.237460         1.429818         0.219992
 C         3.616724         0.819501         0.356903
 C         3.154030        -0.582990         0.968681
 O         1.815952        -0.677557         1.067564
 H         4.062290        -1.081230        -2.470710
 H         5.520858        -0.792739        -1.581322
 H         4.784158        -2.185633        -1.273190
 H        -0.498583         0.778586         0.550387
 H        -0.160943         0.859258        -1.322315
 H        -0.421775        -0.725241        -0.731965
 H         2.133965         2.351048        -0.507331
 H         1.908192         1.816339         1.216144
 H         4.568788         1.306110         0.512860
 H         3.764624        -1.127103         1.798662
