19
Iteration:  2623charge 0 multiplicity 1
 C         4.690892        -1.104280        -1.341136
 C         3.497816        -0.490335        -0.584783
 O         2.222142        -0.122328        -1.322109
 C         1.491515         0.338253        -0.194920
 C         0.028570         0.338818        -0.329610
 C         2.415467         1.387096         0.505789
 C         3.587902         0.497095         0.464787
 C         3.059224        -0.897494         0.776933
 O         1.673744        -0.782685         0.749616
 H         5.413545        -0.390944        -1.640035
 H         5.115511        -1.908026        -0.674650
 H         4.414928        -1.461150        -2.303066
 H        -0.425361         0.892240         0.451000
 H        -0.314682         1.030042        -1.085951
 H        -0.494129        -0.551332        -0.383811
 H         2.320441         2.470784         0.094065
 H         2.006637         1.537006         1.567074
 H         4.545621         0.855767         0.789323
 H         3.508212        -1.573086         1.443205
