19
Iteration:  2299
 C         4.507829        -1.070348        -1.524610
 C         3.512310        -0.443577        -0.517345
 O         2.383287        -0.096440        -1.254360
 C         1.526646         0.292303        -0.213756
 C         0.056097         0.519818        -0.494065
 C         2.421181         1.320805         0.547514
 C         3.613536         0.448872         0.712869
 C         3.010614        -0.965904         0.778271
 O         1.608145        -0.857387         0.777619
 H         5.472677        -1.367208        -1.003405
 H         4.137921        -1.854302        -2.154281
 H         4.886623        -0.258241        -2.154297
 H        -0.504914         0.864796         0.420495
 H        -0.226648         1.410858        -1.198689
 H        -0.437956        -0.445385        -0.833113
 H         2.642606         2.132613        -0.080523
 H         2.119562         1.716019         1.466146
 H         4.527506         0.902213         1.146658
 H         3.424440        -1.816260         1.225758
