19
Iteration:  3837charge 0 multiplicity 1
 C         4.506915        -1.196714        -1.468784
 C         3.548760        -0.443795        -0.558351
 O         2.266783        -0.297964        -1.197382
 C         1.503026         0.245729        -0.161881
 C        -0.029875         0.196112        -0.357067
 C         2.315130         1.458925         0.274048
 C         3.588108         0.715716         0.449266
 C         3.160138        -0.676668         0.874051
 O         1.782177        -0.749814         0.899238
 H         5.568848        -0.792170        -1.436495
 H         4.424979        -2.234832        -1.151049
 H         4.303308        -1.161545        -2.534630
 H        -0.506196         0.506120         0.626224
 H        -0.300196         0.839445        -1.278693
 H        -0.377441        -0.899635        -0.357581
 H         2.367987         2.179844        -0.543675
 H         1.956413         1.969760         1.263824
 H         4.557711         1.222204         0.672137
 H         3.800665        -1.204233         1.570964
