19
Iteration:  3268
 C         4.542208        -1.051281        -1.485524
 C         3.473965        -0.484913        -0.570181
 O         2.243751        -0.337454        -1.192063
 C         1.424834         0.211549        -0.006844
 C         0.000214         0.247904        -0.392346
 C         2.370997         1.458439         0.145695
 C         3.657507         0.658542         0.472644
 C         3.180866        -0.709831         0.850540
 O         1.768334        -0.771187         0.996062
 H         5.306495        -0.239514        -1.459772
 H         4.628675        -2.115330        -1.133210
 H         4.122950        -1.225533        -2.513653
 H        -0.637211         0.662275         0.436103
 H        -0.269809         0.918217        -1.185993
 H        -0.452547        -0.632388        -0.712885
 H         2.426229         1.893043        -0.859823
 H         2.033523         2.140159         0.849419
 H         4.659370         1.079262         0.714649
 H         3.867970        -1.459793         1.519299
