19
Iteration:  3801
 C         4.508175        -1.086475        -1.501052
 C         3.487905        -0.478872        -0.593120
 O         2.225063        -0.330000        -1.161626
 C         1.472264         0.198603        -0.096445
 C         0.030203         0.193435        -0.445084
 C         2.341470         1.458193         0.246781
 C         3.604926         0.683746         0.402970
 C         3.169460        -0.722784         0.867644
 O         1.798692        -0.691114         1.067827
 H         5.432115        -1.183888        -0.908984
 H         4.276466        -2.231307        -1.724006
 H         4.503914        -0.475785        -2.400081
 H        -0.691716         0.557435         0.273204
 H        -0.217292         0.814125        -1.356079
 H        -0.160939        -0.802962        -0.880528
 H         2.249609         2.067250        -0.662576
 H         2.063044         2.033752         1.095912
 H         4.605868         1.181799         0.636041
 H         3.870549        -1.321685         1.535318
