19
Iteration:  1745charge 0 multiplicity 1
 C         4.668900        -1.011239        -1.366675
 C         3.560235        -0.514334        -0.559300
 O         2.252297         0.036811        -1.281719
 C         1.461348         0.324490        -0.056893
 C         0.074911         0.672306        -0.429970
 C         2.474979         1.310271         0.547475
 C         3.567809         0.309371         0.653295
 C         2.973707        -1.082937         0.713828
 O         1.582091        -0.918198         0.619417
 H         4.633769        -2.178294        -1.434081
 H         4.541750        -0.561914        -2.359117
 H         5.648201        -0.702425        -0.866431
 H        -0.579286         0.856561         0.464824
 H         0.211945         1.661575        -1.043291
 H        -0.323895        -0.089575        -1.110742
 H         2.678489         1.937295        -0.229358
 H         2.278741         1.786134         1.469009
 H         4.439576         0.559863         1.226259
 H         3.412458        -2.013388         1.126456
