19
Iteration:  2532
 C         4.624221        -0.974259        -1.524804
 C         3.467199        -0.507295        -0.634202
 O         2.258849        -0.242563        -1.210866
 C         1.498127         0.268708        -0.109132
 C         0.088570         0.510851        -0.591655
 C         2.348744         1.326670         0.524620
 C         3.624560         0.509619         0.553110
 C         3.073306        -0.951151         0.810881
 O         1.648502        -0.787951         0.940846
 H         4.575387        -0.467316        -2.506365
 H         5.444554        -0.683815        -0.989277
 H         4.559552        -2.060815        -1.632476
 H        -0.466181         0.782314         0.351924
 H         0.116351         1.550208        -1.027165
 H        -0.294884        -0.421738        -1.095594
 H         2.332070         2.214986        -0.089552
 H         1.958617         1.652874         1.483809
 H         4.694935         0.737951         0.776695
 H         3.544323        -1.769544         1.380309
