19
Iteration:  4773charge 0 multiplicity 1
 C         4.491934        -1.318449        -1.405861
 C         3.558007        -0.403149        -0.657521
 O         2.201984        -0.427971        -1.276138
 C         1.504115         0.151274        -0.142145
 C        -0.030295         0.073332        -0.316463
 C         2.216413         1.445800         0.247786
 C         3.574720         0.935699         0.306983
 C         3.237352        -0.493364         0.879304
 O         1.915339        -0.678937         1.041398
 H         5.587960        -1.138983        -1.415249
 H         4.467083        -2.386205        -0.914949
 H         4.162247        -1.429434        -2.397875
 H        -0.442617         0.645783         0.508341
 H        -0.245276         0.551371        -1.257522
 H        -0.275954        -0.954618        -0.168271
 H         2.055598         2.380175        -0.503831
 H         1.758025         2.005236         1.202101
 H         4.392496         1.431889         0.709070
 H         3.727498        -0.836014         1.721501
