19
Iteration:  3312
 C         4.614275        -1.095664        -1.371637
 C         3.484832        -0.578288        -0.648684
 O         2.213932        -0.447059        -1.243041
 C         1.457666         0.122368        -0.138037
 C        -0.028333         0.351082        -0.297130
 C         2.290003         1.413587         0.328926
 C         3.623407         0.730231         0.291457
 C         3.198402        -0.665662         0.831125
 O         1.778421        -0.660580         0.952911
 H         5.508442        -0.492163        -0.983052
 H         4.686305        -2.255206        -1.437943
 H         4.612764        -0.732566        -2.478808
 H        -0.481835         0.943117         0.507027
 H        -0.411015         1.076690        -0.977549
 H        -0.436273        -0.589997        -0.506461
 H         2.181472         2.309844        -0.298635
 H         1.950557         1.586453         1.300556
 H         4.659413         1.066138         0.588208
 H         3.852220        -1.279182         1.648997
