19
Iteration:  3668charge 0 multiplicity 1
 C         4.489314        -1.158802        -1.414863
 C         3.481225        -0.385449        -0.598840
 O         2.180936        -0.386722        -1.111587
 C         1.454652         0.157835         0.029436
 C        -0.002464         0.213609        -0.506515
 C         2.295413         1.487488         0.223290
 C         3.606836         0.757256         0.303869
 C         3.238985        -0.669971         0.835638
 O         1.856023        -0.753376         1.044630
 H         4.956541        -2.022209        -0.886022
 H         3.924898        -1.402332        -2.394443
 H         5.471215        -0.743081        -1.875553
 H        -0.659481         0.662116         0.306596
 H         0.094358         0.835334        -1.380211
 H        -0.227756        -0.806604        -0.876739
 H         2.397769         2.068805        -0.730908
 H         1.982939         2.058482         1.035458
 H         4.537885         1.330727         0.538206
 H         3.844744        -1.314171         1.561105
