19
Iteration:  4099charge 0 multiplicity 1
 C         4.592642        -1.170923        -1.581147
 C         3.521742        -0.511374        -0.526268
 O         2.243341        -0.540408        -1.222307
 C         1.474863         0.109670        -0.203649
 C        -0.002731         0.304095        -0.375439
 C         2.197561         1.405172         0.263029
 C         3.635581         0.797991         0.340324
 C         3.216715        -0.529875         0.973614
 O         1.793718        -0.633027         1.064218
 H         4.030027        -1.024748        -2.542265
 H         5.546602        -0.392607        -1.595865
 H         4.854863        -2.218548        -1.313615
 H        -0.578824         0.630613         0.456946
 H        -0.226617         0.919999        -1.212494
 H        -0.452738        -0.662246        -0.505746
 H         2.092230         2.148993        -0.453431
 H         1.820006         1.693658         1.254739
 H         4.642292         1.154680         0.686819
 H         3.730802        -1.086804         1.749125
