19
Iteration:  2613charge 0 multiplicity 1
 C         4.620795        -1.084031        -1.390150
 C         3.485294        -0.464224        -0.638693
 O         2.266198        -0.144133        -1.284822
 C         1.521378         0.295246        -0.260886
 C        -0.039117         0.373890        -0.350559
 C         2.414728         1.439206         0.510673
 C         3.618541         0.542313         0.561373
 C         3.073450        -0.878537         0.791022
 O         1.631027        -0.830437         0.778896
 H         5.411731        -0.357014        -1.491706
 H         5.132280        -1.922284        -0.786448
 H         4.449187        -1.593891        -2.329059
 H        -0.223542         0.738681         0.607635
 H        -0.407514         0.814237        -1.194513
 H        -0.409994        -0.616846        -0.419197
 H         2.890698         2.294765        -0.126232
 H         1.969460         1.615364         1.549208
 H         4.620603         0.815485         0.902329
 H         3.545944        -1.626631         1.373632
