19
Iteration:  1423charge 0 multiplicity 1
 C         4.549282        -0.922011        -1.516556
 C         3.467575        -0.508442        -0.585391
 O         2.338139         0.009881        -1.197517
 C         1.489557         0.283106        -0.095296
 C         0.201848         0.711335        -0.619212
 C         2.455699         1.316043         0.583357
 C         3.628565         0.282561         0.737442
 C         2.972527        -1.037927         0.803853
 O         1.513026        -1.005937         0.748784
 H         4.641212        -1.967631        -1.255460
 H         4.091197        -0.886964        -2.613337
 H         5.436874        -0.232659        -1.443492
 H        -0.427143         1.232650         0.098608
 H         0.379315         1.432779        -1.472191
 H        -0.217133        -0.104319        -1.156901
 H         2.819927         1.971805        -0.110252
 H         2.138054         1.687971         1.514139
 H         4.613928         0.465117         1.210327
 H         3.399821        -1.913768         1.388511
