19
Iteration:  3676
 C         4.483699        -1.165067        -1.427388
 C         3.510630        -0.456225        -0.629731
 O         2.204438        -0.381842        -1.164789
 C         1.425206         0.149260        -0.025617
 C         0.006548         0.206506        -0.490485
 C         2.304154         1.495610         0.253023
 C         3.562055         0.746489         0.315678
 C         3.265889        -0.628325         0.841984
 O         1.834412        -0.701181         1.077120
 H         4.839945        -2.138678        -0.919247
 H         4.045883        -1.588795        -2.315259
 H         5.419770        -0.440011        -1.675164
 H        -0.751916         0.449373         0.196985
 H         0.015916         0.807199        -1.349287
 H        -0.311398        -0.794833        -0.638600
 H         2.385684         2.251291        -0.495664
 H         2.122201         1.985826         1.238214
 H         4.604286         1.195247         0.590008
 H         3.991601        -1.325402         1.405963
