19
Iteration:  4456
 C         4.547375        -1.284761        -1.311693
 C         3.501655        -0.403418        -0.632411
 O         2.162215        -0.388388        -1.206822
 C         1.456521         0.131136        -0.034412
 C        -0.089682         0.058743        -0.239770
 C         2.193526         1.466595         0.083288
 C         3.631489         0.942704         0.175557
 C         3.318634        -0.554391         0.822495
 O         1.881394        -0.646989         1.071258
 H         4.290732        -1.983864        -2.183966
 H         5.406958        -0.631898        -1.768818
 H         5.149690        -2.080967        -0.683869
 H        -0.571256         0.571772         0.612109
 H        -0.295326         0.449717        -1.276301
 H        -0.114959        -1.070706        -0.366786
 H         1.923021         2.002214        -0.793987
 H         2.028037         1.868558         1.064223
 H         4.506409         1.533243         0.409165
 H         3.947182        -1.112793         1.481510
