19
Iteration:  1574charge 0 multiplicity 1
 C         4.549221        -0.979118        -1.469271
 C         3.477647        -0.477266        -0.614523
 O         2.297379        -0.056777        -1.224908
 C         1.503779         0.247618        -0.026925
 C         0.229077         0.849846        -0.668027
 C         2.376791         1.178809         0.706106
 C         3.608143         0.337093         0.711617
 C         2.997470        -1.069047         0.707342
 O         1.568248        -0.934333         0.721849
 H         5.440163        -0.595200        -1.053517
 H         4.510927        -2.028373        -1.423604
 H         4.517180        -0.731035        -2.512384
 H        -0.486014         1.168521         0.069484
 H         0.606167         1.717816        -1.242265
 H        -0.249084         0.113392        -1.220238
 H         2.678745         2.127365         0.027049
 H         2.072217         1.640427         1.684034
 H         4.522800         0.657586         1.262443
 H         3.306559        -2.026364         0.977017
