19
Iteration:  4685charge 0 multiplicity 1
 C         4.610113        -0.992504        -1.505027
 C         3.503790        -0.538692        -0.529007
 O         2.181419        -0.618344        -1.135219
 C         1.458989         0.198131        -0.140709
 C         0.030048         0.221201        -0.286604
 C         2.262479         1.451775        -0.065041
 C         3.567423         0.696355         0.279236
 C         3.232929        -0.558700         0.970653
 O         1.820354        -0.672064         1.158125
 H         5.460936        -1.428241        -0.973593
 H         3.944005        -1.476936        -2.301794
 H         4.964951        -0.090671        -1.998953
 H        -0.534088         0.572235         0.578696
 H        -0.355259         0.894996        -1.062375
 H        -0.378713        -0.732359        -0.441527
 H         2.367933         2.032476        -1.093755
 H         1.783968         2.166793         0.736085
 H         4.499404         1.247451         0.406045
 H         3.915302        -1.033616         1.791933
