19
Iteration:   848charge 0 multiplicity 1
 C         4.558441        -0.987719        -1.475964
 C         3.531318        -0.490813        -0.542056
 O         2.224580        -0.324628        -1.208843
 C         1.510683         0.213834        -0.163790
 C         0.009766         0.307467        -0.463044
 C         2.377914         1.373876         0.403445
 C         3.661128         0.614295         0.393352
 C         3.084854        -0.809094         0.862138
 O         1.718762        -0.699982         0.941701
 H         4.127659        -1.332302        -2.446379
 H         5.494421        -0.357697        -1.716267
 H         4.973589        -1.892340        -1.029979
 H        -0.468092         0.702267         0.462768
 H        -0.186267         1.038432        -1.265226
 H        -0.716481        -0.474088        -0.706576
 H         2.271119         2.236303        -0.259957
 H         2.099843         1.517201         1.371132
 H         4.637160         0.993736         0.749326
 H         3.548697        -1.451303         1.623357
