19
Iteration:  2928charge 0 multiplicity 1
 C         4.662471        -1.134201        -1.408651
 C         3.559843        -0.477266        -0.608140
 O         2.157196        -0.185040        -1.257067
 C         1.480276         0.307266        -0.190861
 C        -0.019097         0.390363        -0.417916
 C         2.327743         1.371414         0.510500
 C         3.721518         0.549175         0.469899
 C         3.084230        -0.848390         0.743424
 O         1.676132        -0.791350         0.851372
 H         5.586375        -0.684786        -0.986880
 H         4.527530        -2.219647        -1.173538
 H         4.710158        -0.725851        -2.366242
 H        -0.560723         0.801641         0.496388
 H        -0.038310         1.250967        -1.096068
 H        -0.303152        -0.690170        -0.582147
 H         2.354208         2.341790         0.111000
 H         2.032078         1.543751         1.486223
 H         4.673781         0.870981         0.678276
 H         3.558411        -1.517387         1.411488
