19
Iteration:  3539
 C         4.475818        -1.214486        -1.548543
 C         3.516026        -0.464391        -0.551773
 O         2.317280        -0.443131        -1.214810
 C         1.497550         0.194527        -0.123065
 C         0.019753         0.256107        -0.398014
 C         2.233663         1.435919         0.328352
 C         3.608710         0.717454         0.374039
 C         3.228736        -0.579594         0.923864
 O         1.784911        -0.686246         0.956562
 H         5.506310        -0.982723        -1.456972
 H         4.527392        -2.287036        -1.151432
 H         4.046976        -0.993718        -2.495709
 H        -0.486036         0.939361         0.451178
 H        -0.185360         0.951584        -1.273081
 H        -0.508649        -0.754598        -0.638773
 H         2.161631         2.497024        -0.245461
 H         1.789028         1.616667         1.331358
 H         4.521759         1.387458         0.485835
 H         3.720435        -1.204732         1.743954
