19
Iteration:    77charge 0 multiplicity 1
 C         4.611382        -1.093194        -1.334508
 C         3.419647        -0.499122        -0.695891
 O         2.085062        -0.693365        -1.066811
 C         1.473579         0.027391        -0.007823
 C        -0.028944         0.019658        -0.312975
 C         2.073188         1.454274         0.048340
 C         3.495287         0.903278        -0.006761
 C         3.414740        -0.397907         0.759155
 O         2.065144        -0.491077         1.265533
 H         5.224093        -0.435421        -1.897816
 H         5.171732        -1.515050        -0.552100
 H         4.367099        -1.893473        -1.978647
 H        -0.551133         0.496498         0.534679
 H        -0.166068         0.629411        -1.187682
 H        -0.438602        -0.987994        -0.508926
 H         1.716316         2.075760        -0.794802
 H         1.887044         2.035695         0.939998
 H         4.403834         1.504204         0.120381
 H         4.163347        -0.686603         1.439454
