19
Iteration:  3622
 C         4.602524        -1.087454        -1.484684
 C         3.589285        -0.513245        -0.562524
 O         2.214396        -0.491177        -1.220249
 C         1.466820         0.174577        -0.186215
 C        -0.062024         0.262769        -0.292201
 C         2.266165         1.447429         0.201111
 C         3.653781         0.692758         0.329447
 C         3.156787        -0.691759         0.919174
 O         1.729586        -0.571901         1.007544
 H         5.409336        -1.653591        -0.929552
 H         4.231643        -1.647948        -2.314617
 H         5.401651        -0.389587        -2.008769
 H        -0.331721         0.518092         0.699515
 H        -0.374216         0.919144        -1.045612
 H        -0.416886        -0.745795        -0.436415
 H         2.247758         2.232072        -0.477690
 H         1.996423         1.746256         1.206157
 H         4.698742         1.100641         0.547910
 H         3.632893        -1.241913         1.749312
