19
Iteration:   172
 C         4.501027        -1.095917        -1.436975
 C         3.427928        -0.475728        -0.585541
 O         2.143716        -0.557868        -1.079090
 C         1.412788         0.083319         0.112595
 C         0.050023        -0.120915        -0.348456
 C         2.185865         1.518806        -0.071190
 C         3.579414         0.905049         0.052832
 C         3.362314        -0.471415         0.911561
 O         1.946086        -0.528781         1.214024
 H         4.044327        -1.906723        -2.132590
 H         5.111299        -0.304346        -1.951525
 H         5.186993        -1.660835        -0.737095
 H        -0.693014         0.338247         0.337414
 H         0.052995         0.397499        -1.317734
 H        -0.044138        -1.222661        -0.488105
 H         1.977531         1.787283        -1.113594
 H         1.981719         2.466303         0.562640
 H         4.400673         1.617108         0.160838
 H         3.997405        -0.992960         1.598899
