19
Iteration:  4478
 C         4.496434        -1.175671        -1.395819
 C         3.544696        -0.477031        -0.625509
 O         2.257895        -0.513018        -1.200022
 C         1.479075         0.162832        -0.199242
 C        -0.019579         0.016868        -0.218098
 C         2.188166         1.519737         0.141966
 C         3.543970         0.807487         0.255967
 C         3.260013        -0.459246         0.881392
 O         1.871357        -0.579731         1.065775
 H         3.960296        -1.813309        -2.148460
 H         5.375252        -0.708119        -1.980482
 H         4.964399        -2.108723        -0.936335
 H        -0.320919         0.551181         0.690437
 H        -0.359035         0.564851        -1.129996
 H        -0.218424        -1.082417        -0.217440
 H         2.138154         2.226923        -0.630498
 H         1.889998         1.864510         1.125647
 H         4.498456         1.300046         0.261416
 H         3.778180        -0.796179         1.704970
