19
Iteration:   156
 C         4.555385        -1.116088        -1.449399
 C         3.487133        -0.467811        -0.604832
 O         2.140982        -0.609608        -1.081527
 C         1.466418         0.144438        -0.120446
 C        -0.084906        -0.225195        -0.248032
 C         2.269705         1.540767        -0.029087
 C         3.600093         0.845849         0.128607
 C         3.279993        -0.351164         0.890230
 O         1.915998        -0.457322         1.207145
 H         4.091736        -1.506611        -2.320519
 H         5.223764        -0.360732        -1.889733
 H         5.196397        -1.887770        -1.015576
 H        -0.728544         0.218318         0.516643
 H        -0.456299         0.114073        -1.231805
 H        -0.231620        -1.298907        -0.185225
 H         2.222146         2.210328        -0.923275
 H         2.007601         1.919750         0.921322
 H         4.643026         1.171083         0.255957
 H         3.919596        -0.702476         1.746988
