19
Iteration:  2755charge 0 multiplicity 1
 C         4.649598        -1.116316        -1.379972
 C         3.526311        -0.464726        -0.626343
 O         2.273779        -0.130881        -1.311255
 C         1.470107         0.288133        -0.091658
 C         0.002228         0.553068        -0.398430
 C         2.332546         1.310578         0.463783
 C         3.601701         0.547924         0.576718
 C         3.095344        -0.875041         0.755207
 O         1.661505        -0.898166         0.785061
 H         4.402627        -1.119323        -2.484157
 H         5.614678        -0.632626        -1.024404
 H         4.644499        -2.174811        -1.096792
 H        -0.345128         0.734958         0.612396
 H        -0.134580         1.252990        -1.207261
 H        -0.325735        -0.422016        -0.802729
 H         2.540653         2.210625        -0.228359
 H         2.100357         1.613029         1.550331
 H         4.575541         1.032218         0.813395
 H         3.507193        -1.703878         1.363070
