19
Iteration:  3215
 C         4.569769        -1.169368        -1.410859
 C         3.511689        -0.486487        -0.624364
 O         2.210012        -0.369545        -1.280553
 C         1.433790         0.155457        -0.085477
 C        -0.025416         0.271402        -0.410266
 C         2.308614         1.478062         0.394028
 C         3.653928         0.739908         0.352363
 C         3.203680        -0.697988         0.805526
 O         1.790760        -0.716626         1.004292
 H         5.353183        -0.419008        -1.780612
 H         5.112711        -1.898577        -0.805242
 H         4.003936        -1.535716        -2.324766
 H        -0.739717         0.785532         0.227861
 H        -0.320983         1.063045        -1.151384
 H        -0.309353        -0.699452        -0.691811
 H         2.424441         2.349889        -0.210731
 H         1.985597         1.722705         1.352350
 H         4.585677         1.247711         0.668616
 H         3.704636        -1.482636         1.560839
