19
Iteration:  3356
 C         4.424049        -1.139571        -1.426290
 C         3.509447        -0.465088        -0.609099
 O         2.223944        -0.324855        -1.203972
 C         1.446899         0.170583        -0.045233
 C        -0.023134         0.179683        -0.366638
 C         2.297691         1.443059         0.192264
 C         3.642234         0.738238         0.416478
 C         3.238987        -0.685122         0.840805
 O         1.839218        -0.703038         0.973746
 H         5.234551        -1.693661        -0.930710
 H         4.067873        -2.024709        -2.082910
 H         5.098456        -0.453885        -2.068767
 H        -0.441476         0.794422         0.399377
 H        -0.034408         0.924924        -1.135731
 H        -0.287904        -0.790447        -0.569906
 H         2.319014         2.005657        -0.749242
 H         2.069985         2.093794         0.974155
 H         4.473501         1.239772         0.903802
 H         3.738699        -1.301130         1.596690
