19
Iteration:  1666charge 0 multiplicity 1
 C         4.601458        -1.061218        -1.366588
 C         3.511869        -0.397577        -0.595182
 O         2.271908        -0.020345        -1.250874
 C         1.397499         0.182674        -0.001067
 C         0.154798         0.754090        -0.572817
 C         2.463512         1.336480         0.629104
 C         3.577790         0.347104         0.673971
 C         3.025793        -1.005369         0.634125
 O         1.620056        -0.996246         0.667164
 H         4.836697        -2.062407        -0.933704
 H         4.065770        -1.153118        -2.386540
 H         5.529143        -0.491964        -1.474135
 H        -0.648781         1.087292         0.115992
 H         0.623284         1.619184        -1.043196
 H        -0.410061         0.076790        -1.324567
 H         2.668371         2.234606         0.062236
 H         2.091676         1.627593         1.632232
 H         4.515346         0.518625         1.259896
 H         3.342275        -1.821264         1.281929
