19
Iteration:  3337
 C         4.586313        -1.147505        -1.397355
 C         3.507975        -0.427777        -0.663675
 O         2.180951        -0.361345        -1.205569
 C         1.443300         0.153844        -0.072955
 C         0.032646         0.333324        -0.324889
 C         2.267336         1.465872         0.179601
 C         3.599181         0.735870         0.392298
 C         3.228111        -0.692152         0.854756
 O         1.816563        -0.826117         1.023406
 H         5.535112        -1.217911        -0.796787
 H         4.060550        -2.031560        -1.712194
 H         4.888711        -0.692416        -2.414992
 H        -0.521344         0.857594         0.431935
 H        -0.295042         0.970911        -1.207009
 H        -0.453621        -0.634725        -0.565790
 H         2.354883         2.047332        -0.695237
 H         1.866262         2.015086         1.018694
 H         4.543258         1.209509         0.525441
 H         3.768120        -1.337423         1.400969
