19
Iteration:  3309charge 0 multiplicity 1
 C         4.607087        -1.067705        -1.378917
 C         3.458835        -0.603131        -0.678848
 O         2.239899        -0.454148        -1.241061
 C         1.458047         0.130823        -0.130283
 C        -0.035494         0.344867        -0.303265
 C         2.283804         1.417731         0.319453
 C         3.640117         0.717919         0.301086
 C         3.194133        -0.650219         0.811332
 O         1.763507        -0.660018         0.976599
 H         5.552636        -0.552886        -1.081420
 H         4.830401        -2.224178        -1.360532
 H         4.587054        -0.781704        -2.397439
 H        -0.447854         0.970719         0.561456
 H        -0.338354         1.163821        -0.965821
 H        -0.340922        -0.747008        -0.479215
 H         2.253238         2.415417        -0.296791
 H         1.869040         1.621784         1.395550
 H         4.650959         1.027505         0.584798
 H         3.732246        -1.307245         1.655205
