19
Iteration:   788
 C         4.618196        -1.069065        -1.437646
 C         3.517997        -0.507556        -0.567828
 O         2.241828        -0.373371        -1.253002
 C         1.465054         0.215024        -0.160938
 C        -0.047871         0.372605        -0.391687
 C         2.301816         1.394826         0.319403
 C         3.643084         0.693339         0.412592
 C         3.204760        -0.714161         0.915359
 O         1.717231        -0.794692         0.917279
 H         5.364970        -0.318579        -1.804169
 H         5.113050        -1.880410        -0.925650
 H         4.035123        -1.500434        -2.328055
 H        -0.284501         0.725812         0.595107
 H        -0.268971         1.181401        -1.038865
 H        -0.449580        -0.606715        -0.638892
 H         2.186801         2.222265        -0.378963
 H         1.842605         1.812842         1.319032
 H         4.612597         1.036256         0.592332
 H         3.750285        -1.359466         1.583177
