19
Iteration:    72
 C         4.605372        -1.098415        -1.388751
 C         3.452472        -0.518395        -0.727281
 O         2.101050        -0.723320        -1.100131
 C         1.483546         0.028958        -0.024342
 C         0.008104        -0.001652        -0.291635
 C         2.106396         1.425733         0.065034
 C         3.453795         0.910789        -0.009883
 C         3.364945        -0.350432         0.826914
 O         2.019301        -0.444502         1.278646
 H         5.310188        -0.354777        -1.883559
 H         5.156386        -1.613055        -0.522286
 H         4.245936        -1.898685        -2.119709
 H        -0.482595         0.441147         0.577815
 H        -0.180038         0.658253        -1.196496
 H        -0.329772        -1.017682        -0.498330
 H         1.764194         2.204313        -0.629823
 H         2.014395         1.994558         1.052014
 H         4.369219         1.458271         0.144453
 H         4.195956        -0.701106         1.505040
