19
Iteration:  3173charge 0 multiplicity 1
 C         4.674271        -1.029690        -1.427985
 C         3.500828        -0.469087        -0.567077
 O         2.225071        -0.364794        -1.292190
 C         1.433826         0.188672        -0.131000
 C        -0.064926         0.305691        -0.270409
 C         2.371415         1.443948         0.223768
 C         3.640524         0.643456         0.465287
 C         3.137177        -0.769177         0.823791
 O         1.747244        -0.746887         0.940670
 H         4.704140        -0.365012        -2.280258
 H         5.504811        -1.284201        -0.861732
 H         4.276654        -2.058123        -1.663080
 H        -0.437029         0.923414         0.612413
 H        -0.229156         1.090377        -1.174192
 H        -0.619231        -0.592886        -0.530515
 H         2.282036         2.093173        -0.664696
 H         1.977888         1.961823         1.154010
 H         4.652091         0.982515         0.739626
 H         3.698007        -1.484655         1.571033
