19
Iteration:  2568charge 0 multiplicity 1
 C         4.526640        -0.980797        -1.556378
 C         3.478814        -0.527357        -0.563075
 O         2.265306        -0.231462        -1.216318
 C         1.520967         0.241889        -0.103667
 C         0.094849         0.548278        -0.586401
 C         2.354874         1.395690         0.472901
 C         3.639579         0.558942         0.595206
 C         3.090803        -0.834922         0.869203
 O         1.673808        -0.948858         0.920697
 H         5.110173        -0.224041        -2.079739
 H         5.327385        -1.608269        -1.035884
 H         4.205561        -1.709285        -2.292794
 H        -0.442705         0.733391         0.318365
 H         0.022315         1.279702        -1.401606
 H        -0.427249        -0.239565        -1.033765
 H         2.185740         2.149863        -0.413108
 H         1.941815         1.642632         1.517682
 H         4.613062         0.866103         0.862384
 H         3.641331        -1.582120         1.437783
