19
Iteration:  3650
 C         4.457467        -1.135762        -1.480063
 C         3.540009        -0.481108        -0.561599
 O         2.182417        -0.399874        -1.172506
 C         1.467532         0.116963        -0.072501
 C         0.050399         0.298941        -0.424724
 C         2.241438         1.445596         0.135494
 C         3.624464         0.806038         0.414878
 C         3.266665        -0.631252         0.935850
 O         1.816428        -0.768865         1.028171
 H         5.021859        -1.943832        -0.997121
 H         4.038823        -1.568271        -2.397896
 H         5.227507        -0.496134        -1.740233
 H        -0.618435         0.495741         0.460116
 H         0.050880         1.022525        -1.329285
 H        -0.365713        -0.736358        -0.635652
 H         2.257293         2.046250        -0.848782
 H         1.902877         2.103028         1.016999
 H         4.544908         1.212468         0.577865
 H         3.866983        -1.221658         1.522182
