19
Iteration:  4437charge 0 multiplicity 1
 C         4.618514        -1.214100        -1.302216
 C         3.426854        -0.396664        -0.684517
 O         2.126689        -0.466663        -1.198339
 C         1.437905         0.143633         0.018926
 C        -0.048175         0.051636        -0.284145
 C         2.230164         1.542398         0.104145
 C         3.548648         0.783268         0.184867
 C         3.305684        -0.501479         0.860064
 O         1.971271        -0.669209         1.055368
 H         4.083084        -1.845497        -2.017242
 H         5.399351        -0.650518        -1.882005
 H         5.047666        -1.714761        -0.536431
 H        -0.528966         0.682153         0.587068
 H        -0.324032         0.589573        -1.282803
 H        -0.493792        -0.942836        -0.530330
 H         2.331483         1.968275        -0.842987
 H         1.883581         2.211729         0.949058
 H         4.506240         1.256668         0.374164
 H         3.978875        -1.034970         1.386372
