19
Iteration:   906
 C         4.565647        -1.127315        -1.368744
 C         3.495072        -0.423749        -0.606481
 O         2.297551        -0.192691        -1.327622
 C         1.480921         0.247325        -0.051699
 C        -0.020906         0.341031        -0.416390
 C         2.402681         1.380731         0.413112
 C         3.623898         0.614996         0.482813
 C         3.095963        -0.793681         0.834997
 O         1.698782        -0.838068         0.858468
 H         4.732362        -2.085249        -0.922061
 H         4.100573        -1.099343        -2.319617
 H         5.550011        -0.608633        -1.410748
 H        -0.620758         0.773119         0.422436
 H        -0.115648         1.126363        -1.193441
 H        -0.279347        -0.703889        -0.814574
 H         2.339400         2.221916        -0.258642
 H         2.049584         1.754303         1.420768
 H         4.561238         1.122263         0.665803
 H         3.705427        -1.631494         1.139516
