19
Iteration:  3502
 C         4.495338        -1.113902        -1.424721
 C         3.474175        -0.488003        -0.644690
 O         2.210182        -0.317504        -1.197603
 C         1.431293         0.245800         0.011333
 C        -0.016756         0.169747        -0.400710
 C         2.347304         1.513505         0.189242
 C         3.611654         0.660393         0.423534
 C         3.203926        -0.698581         0.856117
 O         1.803278        -0.706923         1.025259
 H         5.514024        -0.764091        -1.111095
 H         4.468032        -2.169800        -1.394292
 H         4.635251        -1.191574        -2.525469
 H        -0.719900         0.624541         0.292020
 H        -0.010351         0.727592        -1.335721
 H        -0.105823        -0.903214        -0.734806
 H         2.515133         1.967711        -0.703561
 H         2.263700         2.251186         0.994474
 H         4.580933         1.073516         0.408627
 H         3.758007        -1.438292         1.434642
