19
Iteration:  1663
 C         4.585127        -1.057364        -1.366138
 C         3.512928        -0.392053        -0.575828
 O         2.278274        -0.004908        -1.250363
 C         1.418575         0.177804        -0.017141
 C         0.152123         0.755261        -0.559355
 C         2.435903         1.305123         0.605517
 C         3.616848         0.325564         0.692837
 C         3.032607        -0.999138         0.628840
 O         1.612674        -0.992670         0.662258
 H         4.789134        -1.919527        -0.883448
 H         4.190973        -1.244189        -2.367144
 H         5.457560        -0.488151        -1.463491
 H        -0.560205         1.115328         0.177181
 H         0.473150         1.633739        -1.054131
 H        -0.418411         0.137757        -1.250205
 H         2.647809         2.274586        -0.091802
 H         1.995826         1.650758         1.600618
 H         4.533992         0.542444         1.182078
 H         3.265112        -1.880812         1.324613
