19
Iteration:  2892charge 0 multiplicity 1
 C         4.624927        -1.054079        -1.393741
 C         3.524915        -0.369740        -0.615576
 O         2.283964        -0.219166        -1.299457
 C         1.428428         0.154253        -0.076367
 C         0.066513         0.499667        -0.307964
 C         2.324573         1.362429         0.366784
 C         3.628926         0.578503         0.556048
 C         3.106581        -0.875287         0.756233
 O         1.653624        -0.855278         0.826462
 H         5.564053        -0.558433        -1.260569
 H         4.918473        -2.118391        -1.138193
 H         4.234532        -1.266104        -2.445878
 H        -0.452879         0.800123         0.572082
 H         0.019949         1.241169        -1.144592
 H        -0.508551        -0.115247        -0.939790
 H         2.352239         1.969494        -0.521964
 H         1.952335         1.834263         1.271666
 H         4.688249         0.794075         1.001491
 H         3.453058        -1.690297         1.422288
