19
Iteration:  1056charge 0 multiplicity 1
 C         4.625430        -1.079118        -1.424269
 C         3.570841        -0.448512        -0.577015
 O         2.319078        -0.060457        -1.343461
 C         1.489570         0.362367        -0.092743
 C        -0.076591         0.371128        -0.398424
 C         2.440739         1.336319         0.434096
 C         3.623709         0.491466         0.663433
 C         3.017262        -0.974059         0.762452
 O         1.623764        -0.793747         0.762422
 H         4.361516        -1.157412        -2.480176
 H         5.604033        -0.453596        -1.370073
 H         4.582662        -2.104672        -1.018874
 H        -0.588506         0.654832         0.520530
 H        -0.299710         1.020490        -1.193888
 H        -0.447581        -0.652302        -0.598849
 H         2.715476         2.049540        -0.359549
 H         2.310557         1.843097         1.357344
 H         4.432406         0.746133         1.396144
 H         3.632883        -1.737376         1.300484
