19
Iteration:  4448
 C         4.567094        -1.245812        -1.286689
 C         3.507787        -0.435161        -0.701614
 O         2.161867        -0.405563        -1.195732
 C         1.411923         0.172022        -0.002589
 C        -0.085579         0.069582        -0.251924
 C         2.222523         1.459256         0.082138
 C         3.609033         0.865618         0.214623
 C         3.328709        -0.512811         0.768170
 O         1.926250        -0.687933         1.082071
 H         4.171616        -1.954196        -2.040979
 H         5.403120        -0.637067        -1.711675
 H         4.952056        -1.864965        -0.556336
 H        -0.888652         0.448574         0.465820
 H        -0.228896         0.603893        -1.263966
 H        -0.288833        -1.031450        -0.274715
 H         2.014059         2.025944        -0.773142
 H         1.936840         2.148567         0.932052
 H         4.529034         1.432540         0.362177
 H         3.940169        -0.895708         1.494213
