19
Iteration:  1561
 C         4.632220        -1.062563        -1.523813
 C         3.532014        -0.462697        -0.550736
 O         2.265058        -0.118935        -1.248738
 C         1.466338         0.282047        -0.126404
 C         0.209541         0.861465        -0.611121
 C         2.400246         1.249630         0.763171
 C         3.630856         0.366858         0.728616
 C         3.000406        -1.028367         0.752601
 O         1.506502        -0.959426         0.676022
 H         5.717587        -0.728802        -1.471700
 H         4.732066        -2.096579        -1.604979
 H         4.235272        -0.580731        -2.414558
 H        -0.490004         1.178352         0.158381
 H         0.495147         1.737869        -1.217930
 H        -0.232641         0.227285        -1.392063
 H         2.371332         2.349599         0.424567
 H         1.972205         1.072303         1.766786
 H         4.664871         0.693647         1.044218
 H         3.403940        -1.835157         1.356278
