19
Iteration:  3045
 C         4.659525        -1.097266        -1.414954
 C         3.509125        -0.447156        -0.621121
 O         2.188640        -0.222692        -1.262574
 C         1.475460         0.177240        -0.112608
 C         0.043099         0.378784        -0.328105
 C         2.382785         1.530238         0.321259
 C         3.545407         0.567355         0.477682
 C         3.101726        -0.838709         0.768915
 O         1.732453        -0.845128         0.880406
 H         4.554851        -2.174515        -1.245976
 H         4.641062        -0.809475        -2.523575
 H         5.441871        -0.955913        -0.640478
 H        -0.459080         0.575965         0.615349
 H        -0.201831         1.171438        -1.020550
 H        -0.421703        -0.539063        -0.612489
 H         2.488474         2.279955        -0.480290
 H         2.207167         2.082879         1.304940
 H         4.445271         0.954221         0.804692
 H         3.641069        -1.498987         1.489069
