19
Iteration:  2637
 C         4.677624        -1.085345        -1.319963
 C         3.474288        -0.498555        -0.677674
 O         2.278154        -0.153616        -1.358016
 C         1.465914         0.244031        -0.035603
 C        -0.005166         0.495029        -0.360938
 C         2.296803         1.354822         0.505300
 C         3.673349         0.552016         0.483132
 C         3.089280        -0.871503         0.722367
 O         1.657756        -0.793299         0.817308
 H         5.437787        -0.327108        -1.652549
 H         5.193715        -1.886767        -0.714219
 H         4.424423        -1.697432        -2.287336
 H        -0.521892         0.788698         0.521771
 H        -0.130066         0.890626        -1.300287
 H        -0.298973        -0.534888        -0.678856
 H         2.367342         2.243324        -0.191647
 H         2.041115         1.524519         1.581087
 H         4.684045         0.863957         0.905037
 H         3.441096        -1.744448         1.336542
