19
Iteration:  3111
 C         4.511225        -1.066703        -1.480542
 C         3.437426        -0.527947        -0.642902
 O         2.220954        -0.316248        -1.189337
 C         1.450262         0.230879         0.040811
 C         0.024866         0.344736        -0.509028
 C         2.321163         1.381500         0.355555
 C         3.613251         0.672136         0.529214
 C         3.245249        -0.774473         0.797707
 O         1.780120        -0.717440         0.948840
 H         4.385092        -1.369911        -2.510110
 H         5.407785        -0.405063        -1.759524
 H         4.834938        -2.071531        -1.084702
 H        -0.792090         0.553341         0.188535
 H         0.275037         0.938925        -1.355329
 H        -0.349016        -0.520547        -1.064861
 H         2.208123         2.023541        -0.545344
 H         2.133962         2.016384         1.316937
 H         4.628695         1.110854         0.757017
 H         3.689722        -1.607850         1.502294
