19
Iteration:  3994charge 0 multiplicity 1
 C         4.542262        -1.216670        -1.379673
 C         3.514021        -0.439215        -0.634985
 O         2.217070        -0.355238        -1.232373
 C         1.458585         0.173992        -0.101787
 C        -0.029446         0.255136        -0.361964
 C         2.148073         1.476954         0.264512
 C         3.624821         0.759891         0.367176
 C         3.285381        -0.652762         0.862934
 O         1.885689        -0.754731         0.959649
 H         4.376293        -2.285542        -1.139449
 H         4.441986        -1.107729        -2.425818
 H         5.595028        -1.046470        -1.119175
 H        -0.456311         0.834907         0.522551
 H        -0.255592         0.931645        -1.227800
 H        -0.465144        -0.723819        -0.639379
 H         2.051444         2.248740        -0.604015
 H         1.787620         1.905864         1.203675
 H         4.590745         1.251365         0.714115
 H         3.854034        -1.288209         1.560703
