19
Iteration:   950
 C         4.612537        -1.001793        -1.437486
 C         3.498556        -0.498877        -0.562954
 O         2.259597        -0.231910        -1.298457
 C         1.485173         0.231700        -0.129928
 C         0.018936         0.384212        -0.412329
 C         2.431618         1.404829         0.399769
 C         3.665097         0.557279         0.523018
 C         3.058980        -0.901583         0.858830
 O         1.618282        -0.784932         0.874887
 H         5.587365        -0.760642        -0.982113
 H         4.506199        -1.999406        -1.800388
 H         4.627145        -0.412712        -2.416192
 H        -0.667615         0.630241         0.426512
 H        -0.183784         1.215025        -1.183681
 H        -0.346074        -0.561829        -0.919243
 H         2.651627         2.153765        -0.337569
 H         2.285931         1.949346         1.383205
 H         4.662986         0.971785         0.888412
 H         3.258612        -1.779603         1.527087
