19
Iteration:  3804charge 0 multiplicity 1
 C         4.507577        -1.110458        -1.498019
 C         3.472117        -0.474409        -0.561116
 O         2.230477        -0.309416        -1.182403
 C         1.472186         0.194466        -0.064296
 C         0.043017         0.172200        -0.445283
 C         2.359489         1.453761         0.222580
 C         3.600039         0.685023         0.424660
 C         3.164463        -0.718465         0.839869
 O         1.792134        -0.699978         1.067775
 H         5.480513        -1.031815        -0.963433
 H         4.172633        -2.120460        -1.683104
 H         4.458683        -0.527061        -2.394458
 H        -0.664277         0.581568         0.308717
 H        -0.209451         0.834582        -1.376605
 H        -0.234699        -0.836162        -0.907732
 H         2.311361         1.996346        -0.720753
 H         2.077666         2.146098         1.117935
 H         4.585007         1.248879         0.675164
 H         3.918908        -1.318229         1.445778
