19
Iteration:  3371
 C         4.531629        -1.174672        -1.527405
 C         3.493904        -0.464348        -0.548849
 O         2.215135        -0.339755        -1.213231
 C         1.529442         0.218860        -0.121117
 C        -0.029450         0.174129        -0.382865
 C         2.344913         1.485057         0.253665
 C         3.632429         0.697441         0.376159
 C         3.198343        -0.644973         0.925353
 O         1.771554        -0.664876         1.020247
 H         5.105812        -1.983655        -1.016231
 H         3.862288        -1.764995        -2.166480
 H         5.075109        -0.367841        -2.083067
 H        -0.631737         0.322331         0.534134
 H        -0.272100         0.655976        -1.391208
 H        -0.238640        -0.985002        -0.479684
 H         2.268155         2.249105        -0.507643
 H         1.898583         1.883098         1.210890
 H         4.627898         1.136784         0.437750
 H         3.790221        -1.312652         1.533007
