19
Iteration:  1294
 C         4.637050        -0.943254        -1.521430
 C         3.477259        -0.493479        -0.606132
 O         2.287949        -0.056884        -1.257684
 C         1.525373         0.414270        -0.116018
 C         0.117038         0.542723        -0.611706
 C         2.526145         1.282082         0.627280
 C         3.622385         0.267687         0.689103
 C         2.912959        -1.050203         0.749872
 O         1.529262        -0.814057         0.849301
 H         4.392004        -0.756167        -2.530069
 H         5.589566        -0.400907        -1.213537
 H         4.756379        -2.038406        -1.486363
 H        -0.607754         0.486589         0.228628
 H        -0.034891         1.536510        -1.172983
 H        -0.221113        -0.313493        -1.209564
 H         2.757441         2.175699         0.001218
 H         2.224801         1.611866         1.661475
 H         4.497153         0.579398         1.205457
 H         3.428023        -1.932818         1.193757
