19
Iteration:  3516
 C         4.477204        -1.188057        -1.463181
 C         3.479438        -0.426330        -0.580799
 O         2.182739        -0.303232        -1.185552
 C         1.498896         0.189165        -0.060036
 C         0.019760         0.191398        -0.470669
 C         2.345780         1.478059         0.214360
 C         3.656556         0.728151         0.390312
 C         3.222884        -0.713268         0.858152
 O         1.805150        -0.722477         1.058042
 H         5.507261        -0.866709        -1.377028
 H         4.518308        -2.279941        -1.237940
 H         4.125524        -0.946604        -2.388266
 H        -0.612027         0.713331         0.367226
 H        -0.198578         0.807664        -1.370110
 H        -0.304455        -0.898226        -0.697219
 H         2.245271         2.158114        -0.720687
 H         1.890978         2.021641         1.050854
 H         4.536860         1.120688         0.898289
 H         3.765617        -1.276466         1.541406
