19
Iteration:  3537charge 0 multiplicity 1
 C         4.465811        -1.223142        -1.555081
 C         3.533953        -0.469180        -0.542446
 O         2.313599        -0.434751        -1.215528
 C         1.479231         0.196682        -0.132454
 C         0.032264         0.257128        -0.406598
 C         2.230412         1.428778         0.327504
 C         3.620740         0.733153         0.379219
 C         3.220270        -0.586582         0.926966
 O         1.786475        -0.682824         0.962731
 H         5.487018        -0.920321        -1.438309
 H         4.480156        -2.206520        -1.166233
 H         4.044469        -1.008370        -2.429381
 H        -0.512147         0.829413         0.447456
 H        -0.139411         0.903070        -1.275827
 H        -0.505979        -0.722611        -0.575412
 H         2.184307         2.384851        -0.238688
 H         1.863625         1.645441         1.333867
 H         4.502942         1.377144         0.464173
 H         3.693206        -1.196472         1.635100
