19
Iteration:  1079
 C         4.629594        -1.108845        -1.429025
 C         3.494155        -0.486431        -0.605503
 O         2.321433        -0.131117        -1.262893
 C         1.556730         0.237587        -0.167090
 C         0.071660         0.481793        -0.432210
 C         2.318820         1.375119         0.562382
 C         3.596296         0.542401         0.559133
 C         3.009392        -0.899136         0.845717
 O         1.637967        -0.838004         0.711349
 H         4.239212        -1.504591        -2.409316
 H         5.155924        -0.164698        -1.701495
 H         5.150317        -1.948152        -0.887011
 H        -0.242989         0.785475         0.557940
 H        -0.087936         1.347259        -1.078067
 H        -0.591175        -0.340822        -0.666580
 H         2.474657         2.309263         0.110755
 H         1.878700         1.450931         1.496414
 H         4.677264         0.795758         0.750025
 H         3.557482        -1.685402         1.318876
