19
Iteration:  1987
 C         4.516425        -1.088050        -1.590468
 C         3.550112        -0.483622        -0.577431
 O         2.358643        -0.022905        -1.241987
 C         1.473585         0.289150        -0.136255
 C         0.181643         0.718441        -0.636898
 C         2.358210         1.298804         0.651206
 C         3.618621         0.424189         0.717439
 C         3.011203        -0.996659         0.837998
 O         1.582242        -0.981960         0.795504
 H         4.323930        -2.173844        -1.618058
 H         4.279156        -0.673615        -2.522025
 H         5.539626        -0.741426        -1.410755
 H        -0.544991         0.986761         0.209854
 H         0.327499         1.557696        -1.331041
 H        -0.387957        -0.182187        -1.143792
 H         2.588339         2.228420         0.103627
 H         2.121986         1.581216         1.692528
 H         4.481965         0.718719         1.294959
 H         3.380761        -1.924836         1.356645
