19
Iteration:  3167charge 0 multiplicity 1
 C         4.648781        -1.047807        -1.430715
 C         3.525463        -0.504727        -0.577122
 O         2.237596        -0.392158        -1.284616
 C         1.443086         0.133110        -0.167851
 C        -0.036255         0.331469        -0.253928
 C         2.343249         1.460622         0.265097
 C         3.604565         0.639297         0.475363
 C         3.171087        -0.772522         0.843342
 O         1.737495        -0.683346         0.898134
 H         4.559278        -0.405506        -2.339771
 H         5.758431        -0.959328        -0.946836
 H         4.284660        -2.014712        -1.748794
 H        -0.571191         0.950447         0.449416
 H        -0.247434         1.057000        -0.943439
 H        -0.554319        -0.621783        -0.481450
 H         2.245225         2.178781        -0.571071
 H         2.051544         1.944453         1.242225
 H         4.662653         0.833509         0.753500
 H         3.495545        -1.384484         1.593274
