19
Iteration:  3824charge 0 multiplicity 1
 C         4.444462        -1.148264        -1.473669
 C         3.512764        -0.370901        -0.612452
 O         2.246294        -0.248522        -1.245790
 C         1.460182         0.169017        -0.055633
 C         0.020906         0.166862        -0.354687
 C         2.338806         1.485317         0.162435
 C         3.652927         0.695528         0.508752
 C         3.211540        -0.706911         0.931794
 O         1.772127        -0.760820         0.953442
 H         5.506556        -0.965599        -1.194182
 H         4.466431        -2.305146        -1.241210
 H         4.148545        -0.965415        -2.486821
 H        -0.666403         0.576908         0.381915
 H        -0.246956         0.752518        -1.329871
 H        -0.158745        -0.889978        -0.716946
 H         2.406472         1.952519        -0.808531
 H         1.918025         2.207511         0.882358
 H         4.700573         1.088945         0.929257
 H         3.617874        -1.534255         1.664593
