19
Iteration:  4586
 C         4.608791        -1.254874        -1.371713
 C         3.486465        -0.429905        -0.608612
 O         2.175429        -0.353596        -1.193571
 C         1.466664         0.068722        -0.091201
 C         0.001252         0.086875        -0.234033
 C         2.229514         1.489290         0.051029
 C         3.580292         0.818226         0.302165
 C         3.310624        -0.548061         0.851626
 O         1.847715        -0.677392         1.035926
 H         4.680166        -2.245830        -0.920943
 H         4.101870        -1.177708        -2.335452
 H         5.459317        -0.538650        -1.333610
 H        -0.500120         0.599488         0.548735
 H        -0.330875         0.587232        -1.121084
 H        -0.510868        -0.846285        -0.151591
 H         2.182733         2.067693        -0.920314
 H         1.726673         2.237759         0.724584
 H         4.549576         1.324370         0.294744
 H         3.758273        -1.027052         1.627247
