19
Iteration:  2969
 C         4.522941        -1.062071        -1.518071
 C         3.481600        -0.465702        -0.510521
 O         2.203068        -0.169894        -1.188344
 C         1.512174         0.255432        -0.143885
 C         0.056603         0.395703        -0.497095
 C         2.386922         1.392883         0.325520
 C         3.667879         0.592481         0.595211
 C         3.135454        -0.907675         0.880685
 O         1.728834        -0.850584         0.887933
 H         5.377844        -1.647340        -1.205593
 H         3.778530        -1.731441        -2.156056
 H         4.927649        -0.104256        -2.034951
 H        -0.479666         0.799830         0.353567
 H        -0.019871         0.958565        -1.453408
 H        -0.479489        -0.476687        -0.847808
 H         2.456225         2.103140        -0.484479
 H         1.918527         1.796020         1.230566
 H         4.569716         1.013889         0.925818
 H         3.562654        -1.549320         1.579378
