19
Iteration:   269charge 0 multiplicity 1
 C         4.564717        -1.066313        -1.351459
 C         3.455795        -0.433308        -0.651481
 O         2.160023        -0.555425        -1.110582
 C         1.404884         0.212498        -0.004296
 C        -0.080943        -0.079014        -0.243927
 C         2.243649         1.464526        -0.105936
 C         3.643958         0.819667         0.249864
 C         3.305474        -0.499928         0.861478
 O         1.919813        -0.563002         1.100068
 H         5.426351        -1.001850        -0.562752
 H         4.260159        -2.157539        -1.510649
 H         4.873175        -0.591629        -2.334414
 H        -0.742906         0.543882         0.405006
 H        -0.260148         0.412337        -1.188409
 H        -0.270860        -1.162177        -0.091418
 H         2.260539         1.786535        -1.130217
 H         1.909921         2.207233         0.727485
 H         4.608353         1.349157         0.031421
 H         3.892827        -1.255500         1.458867
