19
Iteration:  2375
 C         4.641795        -0.976829        -1.480443
 C         3.442957        -0.506705        -0.592928
 O         2.275845        -0.172506        -1.267033
 C         1.552312         0.309313        -0.177002
 C         0.142724         0.525959        -0.405073
 C         2.420997         1.382038         0.499989
 C         3.602988         0.423701         0.649202
 C         3.025284        -0.940094         0.811397
 O         1.559319        -0.855987         0.760225
 H         4.689906        -2.041337        -1.425956
 H         4.547443        -0.841846        -2.500091
 H         5.551975        -0.548994        -1.153525
 H        -0.420819         0.673498         0.548443
 H        -0.153525         1.433120        -1.039829
 H        -0.377412        -0.364773        -0.858850
 H         2.746716         2.155850        -0.146413
 H         1.894717         1.734229         1.358197
 H         4.569058         0.795204         1.066109
 H         3.319314        -1.899940         1.270123
