19
Iteration:  4579
 C         4.613136        -1.183249        -1.381987
 C         3.499989        -0.487628        -0.562494
 O         2.190177        -0.433224        -1.228661
 C         1.463011         0.110760        -0.050931
 C        -0.021305         0.138356        -0.214578
 C         2.238316         1.434940         0.049449
 C         3.558169         0.823383         0.288711
 C         3.239223        -0.473115         0.861913
 O         1.850489        -0.650353         1.029616
 H         4.772799        -2.303174        -1.296359
 H         4.279987        -1.248275        -2.512713
 H         5.546808        -0.662631        -1.357199
 H        -0.411557         0.712478         0.687480
 H        -0.256661         0.568344        -1.231166
 H        -0.370870        -0.916295        -0.290024
 H         2.123891         1.925556        -0.865782
 H         1.820902         2.008469         0.877331
 H         4.543729         1.320507         0.430014
 H         3.898517        -1.176100         1.545664
