19
Iteration:  4670charge 0 multiplicity 1
 C         4.492882        -1.006601        -1.500497
 C         3.497979        -0.492867        -0.599290
 O         2.167240        -0.583215        -1.086724
 C         1.476099         0.046203        -0.054102
 C        -0.020122         0.181364        -0.341379
 C         2.301188         1.469184        -0.005684
 C         3.574328         0.827908         0.298756
 C         3.250216        -0.567708         1.020275
 O         1.864108        -0.627223         1.067868
 H         5.090894        -1.713737        -0.915043
 H         4.189513        -1.566145        -2.318032
 H         5.280751        -0.278914        -1.912894
 H        -0.435017         0.611998         0.579238
 H        -0.064933         0.853557        -1.207774
 H        -0.435566        -0.823277        -0.728587
 H         2.303648         1.776699        -1.105443
 H         2.000623         2.197263         0.717111
 H         4.598042         1.231477         0.399852
 H         3.781622        -1.166875         1.668225
