19
Iteration:   254charge 0 multiplicity 1
 C         4.614057        -1.071115        -1.286377
 C         3.407428        -0.444299        -0.628101
 O         2.109782        -0.521760        -1.249164
 C         1.409609         0.103469         0.015936
 C        -0.122520        -0.078485        -0.125747
 C         2.349718         1.490745        -0.142331
 C         3.642317         0.860560         0.260899
 C         3.298961        -0.500026         0.823841
 O         1.897625        -0.545017         1.117463
 H         5.220811        -1.550046        -0.586670
 H         4.361166        -1.833430        -1.993386
 H         5.262724        -0.369266        -1.781175
 H        -0.722626         0.332764         0.671959
 H        -0.417404         0.228317        -1.178146
 H        -0.244162        -1.153463        -0.214842
 H         2.346328         1.645182        -1.252710
 H         2.051832         2.452272         0.312305
 H         4.629406         1.270421         0.294233
 H         3.879779        -1.029606         1.504212
