19
Iteration:  4442charge 0 multiplicity 1
 C         4.606401        -1.232051        -1.307217
 C         3.467564        -0.426080        -0.705927
 O         2.151945        -0.433002        -1.194418
 C         1.412283         0.174480         0.021966
 C        -0.063717         0.064177        -0.272205
 C         2.229694         1.490051         0.110236
 C         3.576773         0.792525         0.208529
 C         3.305321        -0.476634         0.784264
 O         1.962469        -0.690416         1.069792
 H         4.025117        -1.807575        -2.033328
 H         5.384373        -0.651591        -1.763324
 H         4.934148        -1.756093        -0.296237
 H        -0.769778         0.472699         0.409696
 H        -0.297532         0.549073        -1.167991
 H        -0.480680        -0.930885        -0.371857
 H         2.209657         2.115618        -0.899787
 H         1.866266         2.218960         0.829654
 H         4.510464         1.331467         0.358321
 H         4.064821        -0.954693         1.533434
