19
Iteration:  3087charge 0 multiplicity 1
 C         4.529123        -1.119298        -1.451990
 C         3.534223        -0.410843        -0.577857
 O         2.255886        -0.270048        -1.255139
 C         1.503201         0.248225        -0.179897
 C         0.007857         0.263854        -0.425611
 C         2.357024         1.448091         0.406309
 C         3.578583         0.632303         0.409043
 C         3.144242        -0.772945         0.894010
 O         1.746922        -0.782680         0.947490
 H         4.032705        -1.625017        -2.248416
 H         5.118335        -0.500454        -2.105340
 H         5.087673        -2.018907        -1.047621
 H        -0.392097         0.581520         0.539922
 H        -0.105200         1.046840        -1.204634
 H        -0.614956        -0.514985        -0.793925
 H         2.434605         2.363576        -0.256801
 H         2.001842         1.778922         1.495365
 H         4.464019         0.975911         0.813137
 H         3.762357        -1.465706         1.519419
