19
Iteration:  3877charge 0 multiplicity 1
 C         4.689251        -1.097652        -1.322593
 C         3.444566        -0.446491        -0.678072
 O         2.139608        -0.383572        -1.211882
 C         1.429590         0.169869        -0.074983
 C         0.001497         0.367653        -0.390199
 C         2.297926         1.390794         0.294902
 C         3.569509         0.655892         0.311168
 C         3.260280        -0.694049         0.781027
 O         1.813259        -0.774382         1.008374
 H         5.532364        -0.499985        -1.013262
 H         4.507429        -2.201827        -1.053704
 H         4.559880        -1.045999        -2.403585
 H        -0.414872         0.899609         0.419595
 H        -0.191325         1.042609        -1.220864
 H        -0.538185        -0.510620        -0.670614
 H         2.374207         2.165133        -0.457151
 H         2.029830         1.783424         1.227545
 H         4.499015         1.322661         0.488781
 H         3.766472        -1.337813         1.561573
