19
Iteration:   202charge 0 multiplicity 1
 C         4.520659        -1.155250        -1.406904
 C         3.497339        -0.429960        -0.592018
 O         2.205363        -0.721943        -1.091640
 C         1.431471         0.006733        -0.092969
 C        -0.096287         0.073461        -0.332840
 C         2.110513         1.463613        -0.005765
 C         3.538278         0.945285         0.138875
 C         3.385747        -0.318015         0.884792
 O         2.006942        -0.601583         1.183148
 H         4.337610        -2.266313        -1.387634
 H         4.585946        -0.890975        -2.503213
 H         5.564091        -1.036942        -0.986305
 H        -0.466994         0.591226         0.543272
 H        -0.107670         0.827299        -1.159752
 H        -0.650523        -0.832850        -0.548323
 H         2.016291         2.078634        -0.889097
 H         1.977951         2.024725         0.961876
 H         4.331245         1.568611         0.475812
 H         4.051923        -0.676125         1.598184
