19
Iteration:  2932
 C         4.636289        -1.108608        -1.395986
 C         3.572094        -0.454272        -0.607002
 O         2.164452        -0.197832        -1.280415
 C         1.471012         0.296272        -0.118513
 C         0.005241         0.359797        -0.427628
 C         2.360953         1.349864         0.498021
 C         3.717447         0.549935         0.469837
 C         3.055915        -0.854015         0.735193
 O         1.658912        -0.757243         0.853362
 H         5.671827        -0.877202        -0.946213
 H         4.550246        -2.200595        -1.451300
 H         4.691411        -0.806429        -2.507100
 H        -0.583370         0.810265         0.376417
 H        -0.019208         1.220328        -1.088754
 H        -0.302201        -0.684029        -0.589889
 H         2.349755         2.416673         0.007871
 H         1.980782         1.553219         1.593463
 H         4.721472         0.990143         0.810184
 H         3.614396        -1.558407         1.449506
