19
Iteration:   645charge 0 multiplicity 1
 C         4.641894        -1.068754        -1.410339
 C         3.480419        -0.482280        -0.679605
 O         2.173211        -0.389183        -1.151850
 C         1.443048         0.105730        -0.052666
 C        -0.014108         0.307413        -0.435873
 C         2.226154         1.466242         0.231596
 C         3.554407         0.779912         0.317937
 C         3.262728        -0.692823         0.828007
 O         1.837770        -0.815381         1.095364
 H         4.458868        -1.665224        -2.343310
 H         5.414580        -0.371868        -1.813826
 H         5.048260        -1.915218        -0.721493
 H        -0.513011         0.838462         0.389533
 H         0.002756         1.007500        -1.236628
 H        -0.568303        -0.584661        -0.786638
 H         2.079020         2.079638        -0.695399
 H         1.941191         2.144080         1.096656
 H         4.569684         1.118127         0.573254
 H         3.938006        -1.121031         1.538479
