19
Iteration:  2801charge 0 multiplicity 1
 C         4.560001        -1.086279        -1.444036
 C         3.474339        -0.453609        -0.609260
 O         2.291225        -0.146911        -1.225426
 C         1.521853         0.232778        -0.130678
 C         0.056528         0.477424        -0.448426
 C         2.381101         1.327261         0.473984
 C         3.636593         0.568876         0.563005
 C         3.094979        -0.907562         0.844154
 O         1.644340        -0.848958         0.783465
 H         4.384422        -0.527672        -2.421971
 H         5.485142        -0.753196        -0.991791
 H         4.284291        -2.181487        -1.488328
 H        -0.389866         0.836920         0.466533
 H         0.077572         1.084857        -1.325306
 H        -0.448808        -0.374136        -0.924746
 H         2.549104         2.117997        -0.362642
 H         2.011072         1.736972         1.502241
 H         4.492949         1.013616         0.922455
 H         3.563024        -1.679673         1.384479
