19
Iteration:  2615charge 0 multiplicity 1
 C         4.627033        -1.091724        -1.371054
 C         3.487604        -0.465302        -0.617937
 O         2.250001        -0.135156        -1.283309
 C         1.526999         0.307654        -0.265131
 C        -0.016251         0.360443        -0.343410
 C         2.419690         1.433006         0.518227
 C         3.598167         0.534075         0.530923
 C         3.074373        -0.882653         0.788109
 O         1.634867        -0.821734         0.770087
 H         5.443858        -0.348774        -1.582120
 H         5.128815        -1.930389        -0.770382
 H         4.531335        -1.578402        -2.398652
 H        -0.258252         0.793004         0.612115
 H        -0.429403         0.819753        -1.172566
 H        -0.527563        -0.620994        -0.447772
 H         2.831905         2.315732        -0.073734
 H         1.979481         1.573025         1.526597
 H         4.635052         0.827671         0.881987
 H         3.571100        -1.631427         1.424037
