19
Iteration:  1082charge 0 multiplicity 1
 C         4.608784        -1.084259        -1.436718
 C         3.491355        -0.492162        -0.592650
 O         2.299801        -0.159456        -1.263497
 C         1.549271         0.257218        -0.165639
 C         0.097262         0.495731        -0.443162
 C         2.311387         1.343373         0.567191
 C         3.587086         0.557037         0.558284
 C         3.038833        -0.899888         0.840851
 O         1.642952        -0.837565         0.708563
 H         4.255802        -1.617651        -2.395397
 H         5.182486        -0.250202        -1.724561
 H         5.196835        -1.833037        -0.832093
 H        -0.202005         0.800977         0.573841
 H         0.031702         1.417449        -1.133260
 H        -0.597973        -0.275927        -0.717720
 H         2.409284         2.274964         0.096073
 H         1.965388         1.402966         1.581199
 H         4.580870         0.847143         0.842198
 H         3.565960        -1.690627         1.317601
