19
Iteration:  3190charge 0 multiplicity 1
 C         4.574047        -1.107124        -1.389778
 C         3.472758        -0.438820        -0.674305
 O         2.195166        -0.270845        -1.189357
 C         1.477581         0.177386        -0.109282
 C         0.024812         0.346887        -0.350609
 C         2.319407         1.407865         0.224567
 C         3.593647         0.646947         0.382842
 C         3.224290        -0.751664         0.853196
 O         1.747722        -0.815240         0.974262
 H         5.219017        -0.311445        -1.913890
 H         5.297484        -1.326595        -0.461850
 H         4.312512        -1.875498        -2.079321
 H        -0.591801         0.771813         0.423390
 H        -0.359150         0.965790        -1.038581
 H        -0.185377        -0.731987        -0.488765
 H         2.467022         2.004125        -0.687646
 H         2.080292         2.047283         1.036856
 H         4.444476         1.188145         0.681672
 H         3.671161        -1.486185         1.407089
