19
Iteration:   787
 C         4.624587        -1.079112        -1.438554
 C         3.517231        -0.506845        -0.562646
 O         2.243658        -0.380788        -1.259407
 C         1.458436         0.222726        -0.156207
 C        -0.044884         0.380531        -0.393042
 C         2.301535         1.390279         0.328108
 C         3.636229         0.700586         0.407865
 C         3.202826        -0.710422         0.909861
 O         1.724152        -0.798152         0.915754
 H         5.351438        -0.331272        -1.804287
 H         5.086213        -1.885665        -0.939221
 H         4.038416        -1.456437        -2.347082
 H        -0.289048         0.711212         0.628208
 H        -0.265029         1.182269        -1.062496
 H        -0.451437        -0.632317        -0.640734
 H         2.175744         2.234734        -0.383120
 H         1.836486         1.804812         1.338993
 H         4.616035         1.030465         0.613940
 H         3.748971        -1.323859         1.623673
