19
Iteration:  3140charge 0 multiplicity 1
 C         4.599638        -1.001431        -1.507209
 C         3.481118        -0.528126        -0.573118
 O         2.197669        -0.357725        -1.198667
 C         1.493487         0.261191        -0.226332
 C         0.064818         0.351581        -0.425127
 C         2.370341         1.386222         0.280088
 C         3.640038         0.661741         0.441260
 C         3.126832        -0.744739         0.899313
 O         1.712628        -0.815556         1.046025
 H         4.373925        -0.919841        -2.577883
 H         5.489481        -0.461901        -1.374619
 H         4.585119        -2.128806        -1.386345
 H        -0.522225         0.787231         0.443501
 H        -0.306942         1.215161        -1.204935
 H        -0.368171        -0.632129        -0.589338
 H         2.181080         2.231362        -0.424961
 H         2.020440         1.712589         1.346408
 H         4.613668         1.022393         0.642611
 H         3.737365        -1.447232         1.582233
