19
Iteration:  3552
 C         4.561046        -1.195362        -1.452398
 C         3.552202        -0.482019        -0.646990
 O         2.217962        -0.452212        -1.204156
 C         1.486473         0.144343        -0.143768
 C        -0.023027         0.333591        -0.380492
 C         2.262219         1.491410         0.315173
 C         3.565052         0.773705         0.352732
 C         3.249523        -0.648571         0.928971
 O         1.803283        -0.716321         0.959439
 H         5.586520        -0.810920        -1.387783
 H         4.388548        -2.340411        -1.453071
 H         4.350006        -1.081683        -2.582320
 H        -0.471750         0.792692         0.574591
 H        -0.137074         0.930560        -1.330020
 H        -0.526925        -0.679191        -0.488357
 H         2.124283         2.403588        -0.420892
 H         1.854460         1.681241         1.347043
 H         4.547481         1.062031         0.761167
 H         3.790177        -1.019807         1.892692
