19
Iteration:  3664charge 0 multiplicity 1
 C         4.500194        -1.163041        -1.439504
 C         3.472707        -0.368843        -0.589574
 O         2.157638        -0.389721        -1.101794
 C         1.475161         0.175363         0.018198
 C         0.011059         0.207945        -0.487199
 C         2.287718         1.469057         0.192160
 C         3.648652         0.769871         0.331401
 C         3.238213        -0.684996         0.856655
 O         1.856524        -0.774884         1.030276
 H         4.859724        -2.066360        -0.839332
 H         3.921053        -1.406359        -2.279769
 H         5.454079        -0.628059        -1.912395
 H        -0.569057         0.736169         0.188623
 H         0.027679         0.878987        -1.344173
 H        -0.244061        -0.709045        -0.962087
 H         2.160856         1.933093        -0.763975
 H         1.893652         2.176364         1.009579
 H         4.589804         1.382818         0.530619
 H         3.760170        -1.281948         1.622175
