19
Iteration:  4111
 C         4.548052        -1.142544        -1.486749
 C         3.561108        -0.422846        -0.627655
 O         2.247997        -0.477632        -1.171461
 C         1.464704         0.125545        -0.101649
 C        -0.025421         0.227926        -0.368630
 C         2.277699         1.475674         0.171964
 C         3.572490         0.795926         0.352217
 C         3.181646        -0.626786         0.942445
 O         1.806793        -0.713810         1.057543
 H         4.179355        -1.188308        -2.568733
 H         5.723845        -0.865014        -1.565395
 H         4.580277        -2.241286        -1.229608
 H        -0.390168         0.770979         0.486311
 H        -0.080190         0.886627        -1.228820
 H        -0.465095        -0.701601        -0.669972
 H         2.194763         2.276459        -0.525814
 H         1.936271         1.863963         1.126009
 H         4.460965         1.432447         0.432886
 H         3.705632        -1.120762         1.667747
