19
Iteration:  3281
 C         4.596380        -1.036881        -1.435631
 C         3.510241        -0.457394        -0.617212
 O         2.123100        -0.341042        -1.168971
 C         1.486856         0.167935        -0.113588
 C        -0.052926         0.282550        -0.358363
 C         2.354792         1.437033         0.176261
 C         3.624150         0.632044         0.393509
 C         3.189896        -0.768294         0.887001
 O         1.778059        -0.713573         0.996625
 H         5.623024        -0.621641        -1.483968
 H         5.015594        -1.969117        -1.145891
 H         4.260475        -0.989808        -2.536218
 H        -0.573048         0.642847         0.541608
 H        -0.133264         1.041991        -1.193957
 H        -0.220627        -0.734512        -0.566285
 H         2.471659         1.991664        -0.718270
 H         2.075151         2.086876         0.945759
 H         4.621154         1.057452         0.704207
 H         3.605637        -1.468071         1.708857
