19
Iteration:  2778charge 0 multiplicity 1
 C         4.644179        -1.165681        -1.441637
 C         3.574942        -0.467020        -0.614966
 O         2.316777        -0.217349        -1.341040
 C         1.499569         0.250085        -0.220408
 C        -0.009297         0.548766        -0.344203
 C         2.224534         1.419647         0.502859
 C         3.630292         0.567987         0.652848
 C         3.089818        -0.858635         0.778669
 O         1.689865        -0.862441         0.770048
 H         4.266504        -0.920712        -2.510424
 H         5.627798        -0.728161        -1.151990
 H         4.461887        -2.234639        -1.230591
 H        -0.106691         0.934098         0.668024
 H        -0.065990         1.221149        -1.166749
 H        -0.684600        -0.272826        -0.684853
 H         2.219501         2.453242        -0.062199
 H         1.924543         1.469797         1.632274
 H         4.582242         0.655997         1.129536
 H         3.505774        -1.595308         1.418436
