19
Iteration:  3981charge 0 multiplicity 1
 C         4.553730        -1.235471        -1.404667
 C         3.489756        -0.407610        -0.602663
 O         2.198898        -0.267765        -1.223049
 C         1.448893         0.136836        -0.009376
 C         0.006233         0.260689        -0.448815
 C         2.272586         1.451613         0.226409
 C         3.540386         0.790983         0.376369
 C         3.305812        -0.671451         0.800799
 O         1.815593        -0.811190         1.070684
 H         4.604281        -2.267922        -0.982163
 H         4.272096        -1.257100        -2.359290
 H         5.482823        -0.673183        -1.286206
 H        -0.741555         0.537972         0.417068
 H         0.049175         0.904848        -1.341838
 H        -0.424125        -0.765132        -0.606149
 H         2.279015         2.012436        -0.763318
 H         1.990187         2.154924         1.049615
 H         4.506881         1.393149         0.399823
 H         4.024243        -1.433345         1.338676
