19
Iteration:  1557charge 0 multiplicity 1
 C         4.621691        -1.051573        -1.534133
 C         3.546513        -0.493884        -0.549053
 O         2.282750        -0.124309        -1.253476
 C         1.512855         0.299584        -0.166459
 C         0.173084         0.861889        -0.604350
 C         2.395254         1.261727         0.800128
 C         3.633371         0.417368         0.695390
 C         2.979060        -1.057773         0.778450
 O         1.510427        -0.951731         0.667827
 H         5.733845        -0.744794        -1.540282
 H         4.737401        -2.239050        -1.561002
 H         4.288365        -0.573629        -2.521476
 H        -0.504213         1.121550         0.257468
 H         0.467909         1.760847        -1.150076
 H        -0.349219         0.208007        -1.420788
 H         2.383134         2.246560         0.579586
 H         1.814948         1.101589         1.709866
 H         4.618244         0.520289         1.122122
 H         3.452913        -1.789416         1.525936
