19
Iteration:  1020charge 0 multiplicity 1
 C         4.551186        -1.028214        -1.434971
 C         3.453680        -0.495812        -0.548244
 O         2.271075        -0.173890        -1.290113
 C         1.513245         0.301419        -0.117748
 C         0.087965         0.468336        -0.518258
 C         2.416557         1.361255         0.520603
 C         3.629952         0.516183         0.481773
 C         3.067238        -0.927296         0.841319
 O         1.665868        -0.854377         0.843030
 H         4.720130        -0.279912        -2.192608
 H         5.435202        -1.244162        -0.821755
 H         4.430550        -1.974678        -1.890527
 H        -0.522358         0.872768         0.311183
 H        -0.112486         1.182727        -1.316148
 H        -0.265916        -0.515579        -0.833073
 H         2.410467         2.356666        -0.075159
 H         1.937411         1.556219         1.566048
 H         4.455269         0.998798         0.888214
 H         3.565186        -1.605088         1.495240
