19
Iteration:  3420charge 0 multiplicity 1
 C         4.543001        -1.071968        -1.454529
 C         3.452885        -0.446978        -0.593947
 O         2.173930        -0.396188        -1.193289
 C         1.477382         0.203954        -0.080638
 C        -0.019235         0.270038        -0.413887
 C         2.286443         1.468431         0.152249
 C         3.660358         0.697528         0.354125
 C         3.243935        -0.705684         0.889119
 O         1.828901        -0.790334         1.097529
 H         4.974731        -1.873259        -0.884535
 H         4.112354        -1.704589        -2.249520
 H         5.247204        -0.302015        -1.685386
 H        -0.485813         0.603550         0.535376
 H        -0.177693         0.985231        -1.204578
 H        -0.473700        -0.681166        -0.591500
 H         2.410618         2.011746        -0.834289
 H         2.033252         2.213983         0.877604
 H         4.543091         1.283544         0.434162
 H         3.717850        -1.292186         1.589970
