19
Iteration:  3598charge 0 multiplicity 1
 C         4.624118        -1.036978        -1.339346
 C         3.443800        -0.583818        -0.650052
 O         2.132026        -0.415732        -1.236423
 C         1.468858         0.259051        -0.094169
 C        -0.046423         0.216113        -0.281205
 C         2.384071         1.482740         0.156834
 C         3.620490         0.654135         0.337873
 C         3.150503        -0.705321         0.847970
 O         1.798576        -0.676855         1.010742
 H         5.524933        -1.132156        -0.666821
 H         4.514977        -1.897454        -1.977477
 H         5.177152        -0.378893        -2.158915
 H        -0.422544         0.617469         0.616001
 H        -0.232775         0.881672        -1.121388
 H        -0.356838        -0.790269        -0.495290
 H         2.423271         2.021507        -0.759007
 H         2.147635         2.128506         1.056506
 H         4.548426         1.070089         0.532050
 H         3.716472        -1.224775         1.529519
