19
Iteration:  1716charge 0 multiplicity 1
 C         4.543177        -0.967250        -1.531012
 C         3.553756        -0.541384        -0.524099
 O         2.422913        -0.047925        -1.372219
 C         1.539876         0.350164        -0.169295
 C         0.088915         0.587536        -0.530417
 C         2.494117         1.358916         0.699163
 C         3.598528         0.312727         0.764475
 C         2.905132        -1.058178         0.775748
 O         1.512150        -0.840210         0.726064
 H         4.714264        -2.065161        -1.470023
 H         4.117107        -0.667946        -2.477180
 H         5.520777        -0.493675        -1.341814
 H        -0.513308         0.523299         0.377537
 H        -0.043437         1.529821        -1.040767
 H        -0.337248        -0.201181        -1.127156
 H         2.791884         2.192878        -0.070179
 H         2.093511         1.754957         1.655071
 H         4.445805         0.417005         1.408313
 H         3.250082        -2.039379         1.278321
