19
Iteration:  4129charge 0 multiplicity 1
 C         4.488849        -1.172027        -1.352490
 C         3.460158        -0.452396        -0.608926
 O         2.178334        -0.347124        -1.164371
 C         1.458518         0.163408        -0.051207
 C         0.009962         0.195092        -0.367696
 C         2.231966         1.448529         0.155873
 C         3.643077         0.787639         0.336464
 C         3.306771        -0.632250         0.828556
 O         1.841312        -0.724295         0.985334
 H         4.405607        -0.904598        -2.373684
 H         5.425158        -0.922195        -0.938082
 H         4.503161        -2.242624        -1.216304
 H        -0.543053         0.624325         0.466318
 H        -0.255298         0.655200        -1.314651
 H        -0.198892        -0.881130        -0.625695
 H         2.226578         1.895412        -0.839306
 H         1.951338         2.284791         0.874154
 H         4.631962         1.112250         0.759741
 H         4.030261        -1.282274         1.467113
