19
Iteration:  2569charge 0 multiplicity 1
 C         4.528786        -0.983415        -1.555665
 C         3.481493        -0.524258        -0.562577
 O         2.270068        -0.219129        -1.208270
 C         1.515686         0.232113        -0.106215
 C         0.099796         0.547124        -0.582633
 C         2.352241         1.397873         0.465427
 C         3.634346         0.550962         0.591907
 C         3.093909        -0.840665         0.865808
 O         1.672383        -0.947693         0.920722
 H         5.111640        -0.235309        -2.090837
 H         5.323931        -1.637405        -1.000414
 H         4.200887        -1.684043        -2.331928
 H        -0.444131         0.737889         0.303125
 H         0.006436         1.253316        -1.367554
 H        -0.428388        -0.235970        -1.010682
 H         2.193678         2.153254        -0.421150
 H         1.944104         1.688511         1.504683
 H         4.601093         0.886179         0.862824
 H         3.618399        -1.570230         1.442951
