19
Iteration:   753
 C         4.575274        -1.182929        -1.423567
 C         3.485245        -0.373296        -0.587184
 O         2.194979        -0.326188        -1.209066
 C         1.444988         0.150238        -0.115328
 C         0.051156         0.338188        -0.476981
 C         2.227671         1.393313         0.351386
 C         3.643978         0.753360         0.401278
 C         3.263020        -0.698863         0.822615
 O         1.786762        -0.793448         1.004334
 H         5.571576        -1.130825        -0.966717
 H         4.246997        -2.211720        -1.533017
 H         4.683261        -0.785866        -2.473287
 H        -0.446947         0.549591         0.510253
 H        -0.165794         1.082007        -1.247743
 H        -0.625596        -0.536153        -0.780500
 H         2.167201         2.147274        -0.520620
 H         1.793459         1.711964         1.402678
 H         4.647675         1.248640         0.494113
 H         3.809999        -1.471029         1.405235
