19
Iteration:  1550charge 0 multiplicity 1
 C         4.593180        -1.040780        -1.563214
 C         3.557248        -0.556873        -0.546320
 O         2.348874        -0.122123        -1.261813
 C         1.577018         0.320035        -0.209770
 C         0.124656         0.852892        -0.601508
 C         2.361660         1.241343         0.837887
 C         3.622409         0.452447         0.644780
 C         2.947687        -1.077746         0.798070
 O         1.545490        -0.924570         0.663542
 H         5.622640        -0.630762        -1.329071
 H         4.536214        -2.073978        -1.520908
 H         4.372016        -0.820745        -2.601488
 H        -0.439546         0.961641         0.326824
 H         0.306090         1.855482        -1.008726
 H        -0.480169         0.195290        -1.245045
 H         2.468110         2.370349         0.611577
 H         1.745594         1.185743         1.750208
 H         4.493237         0.356766         1.328426
 H         3.342051        -1.705272         1.605447
