19
Iteration:  4387
 C         4.583575        -1.055376        -1.587928
 C         3.560495        -0.535400        -0.526734
 O         2.146041        -0.586812        -1.150552
 C         1.480495         0.074949        -0.108120
 C        -0.038799         0.129827        -0.271672
 C         2.269891         1.540867         0.002697
 C         3.635113         0.779096         0.335377
 C         3.231801        -0.553658         0.988476
 O         1.796862        -0.602915         1.100753
 H         4.527385        -2.185025        -1.678683
 H         4.341629        -0.529737        -2.500794
 H         5.644563        -0.616855        -1.141457
 H        -0.432442         0.681178         0.525758
 H        -0.199489         0.698491        -1.157634
 H        -0.529875        -0.767541        -0.539266
 H         2.364375         2.074285        -1.007878
 H         1.962093         2.062570         0.893594
 H         4.559293         1.357549         0.277630
 H         3.688563        -1.061955         1.829544
