19
Iteration:  4504
 C         4.571173        -1.062571        -1.485818
 C         3.541931        -0.518842        -0.561408
 O         2.157544        -0.531791        -1.083983
 C         1.453570         0.127052        -0.072322
 C        -0.056582         0.042160        -0.300191
 C         2.244274         1.485903         0.003121
 C         3.637292         0.813768         0.246169
 C         3.247449        -0.505473         0.911966
 O         1.849862        -0.595258         1.125851
 H         4.055056        -1.642250        -2.273479
 H         5.175595        -0.399717        -2.072957
 H         5.228866        -1.751537        -1.045079
 H        -0.475331         0.589185         0.591944
 H        -0.168475         0.696521        -1.216477
 H        -0.376899        -0.973171        -0.591059
 H         2.252715         1.838088        -1.049406
 H         1.971207         2.197721         0.802248
 H         4.526296         1.463487         0.389453
 H         3.707729        -1.320427         1.589885
