19
Iteration:  2482
 C         4.631849        -1.120615        -1.378797
 C         3.581992        -0.458806        -0.577951
 O         2.338051        -0.165079        -1.370547
 C         1.535046         0.295156        -0.185486
 C         0.019483         0.471608        -0.276422
 C         2.342895         1.377918         0.453118
 C         3.593876         0.536709         0.622051
 C         3.017225        -0.936130         0.712365
 O         1.607755        -0.800631         0.757026
 H         4.186737        -1.182409        -2.393737
 H         5.608063        -0.434837        -1.229021
 H         4.769349        -2.185102        -1.122934
 H        -0.282563         0.732866         0.719030
 H        -0.328602         1.260852        -0.965092
 H        -0.302981        -0.509468        -0.529680
 H         2.375603         2.378420        -0.117496
 H         1.905219         1.659685         1.467168
 H         4.524622         0.878526         1.055276
 H         3.426986        -1.885906         1.169103
