19
Iteration:  3086charge 0 multiplicity 1
 C         4.522880        -1.112696        -1.449406
 C         3.536736        -0.412517        -0.579937
 O         2.268839        -0.269633        -1.260341
 C         1.501219         0.245773        -0.187049
 C        -0.005980         0.261344        -0.414364
 C         2.356988         1.445580         0.407545
 C         3.576367         0.630374         0.409338
 C         3.147853        -0.778044         0.898803
 O         1.747458        -0.776538         0.942701
 H         3.987441        -1.637725        -2.223597
 H         5.126429        -0.544751        -2.085039
 H         5.121162        -1.979329        -1.040803
 H        -0.371265         0.593238         0.561510
 H        -0.098117         1.057459        -1.213503
 H        -0.626316        -0.514726        -0.811899
 H         2.428525         2.363181        -0.255450
 H         2.038494         1.767914         1.493962
 H         4.459225         0.970933         0.805881
 H         3.726321        -1.444484         1.508479
