19
Iteration:  1273charge 0 multiplicity 1
 C         4.523548        -0.925574        -1.491914
 C         3.453541        -0.537864        -0.556997
 O         2.323241        -0.020734        -1.246640
 C         1.445888         0.293054        -0.115179
 C         0.048854         0.527471        -0.564205
 C         2.577096         1.418960         0.572275
 C         3.691820         0.288266         0.822293
 C         2.975045        -1.096762         0.742193
 O         1.591746        -0.840168         0.690315
 H         4.492485        -0.241460        -2.257440
 H         5.430307        -0.677434        -0.885301
 H         4.428427        -1.955569        -1.731895
 H        -0.723292         0.628649         0.213350
 H         0.149733         1.391227        -1.330362
 H        -0.287312        -0.401716        -1.031054
 H         2.906713         2.068791        -0.352387
 H         2.217202         2.060956         1.487164
 H         4.683528         0.517150         1.139600
 H         3.152205        -1.978790         1.421308
