19
Iteration:   803
 C         4.574220        -1.018696        -1.422874
 C         3.480663        -0.432477        -0.581184
 O         2.238123        -0.294077        -1.222493
 C         1.463906         0.139519        -0.128972
 C         0.017888         0.305731        -0.349490
 C         2.357351         1.434740         0.210453
 C         3.630065         0.571694         0.462697
 C         3.123266        -0.812314         0.845890
 O         1.737142        -0.710588         0.966476
 H         4.993101        -0.184047        -2.057199
 H         5.387174        -1.371451        -0.655854
 H         4.325097        -1.790115        -2.126486
 H        -0.551702         0.560918         0.538799
 H        -0.089542         0.966421        -1.246723
 H        -0.526209        -0.563046        -0.669890
 H         2.589830         2.080997        -0.630907
 H         2.073090         1.899429         1.074249
 H         4.560083         1.163306         0.756632
 H         3.547706        -1.697826         1.355639
