19
Iteration:   632
 C         4.619072        -1.131897        -1.431768
 C         3.484924        -0.455464        -0.568866
 O         2.170953        -0.434801        -1.272728
 C         1.439127         0.133993        -0.068268
 C        -0.041537         0.240785        -0.391917
 C         2.243979         1.387554         0.288094
 C         3.616649         0.744440         0.340471
 C         3.242240        -0.624049         0.877615
 O         1.871754        -0.663163         1.003381
 H         4.150739        -1.272908        -2.391138
 H         5.434140        -0.407719        -1.368424
 H         5.070456        -2.005226        -0.963920
 H        -0.631107         0.613970         0.451244
 H        -0.075524         0.981243        -1.211785
 H        -0.502853        -0.687368        -0.712798
 H         2.287125         2.216130        -0.539569
 H         1.887172         1.739316         1.257326
 H         4.402697         1.429795         0.441550
 H         3.726521        -1.338700         1.482001
