19
Iteration:  4833charge 0 multiplicity 1
 C         4.644150        -0.998040        -1.458616
 C         3.421182        -0.550456        -0.610303
 O         2.155341        -0.599861        -1.098158
 C         1.439136         0.177410        -0.034771
 C         0.011116         0.173637        -0.333603
 C         2.267434         1.463433         0.052752
 C         3.592848         0.763471         0.203262
 C         3.304845        -0.605601         0.888506
 O         1.802035        -0.579694         1.133464
 H         5.526988        -0.979678        -0.762441
 H         4.513883        -2.029514        -1.764558
 H         4.860041        -0.256259        -2.323356
 H        -0.615647         0.455586         0.544912
 H        -0.340453         0.763410        -1.205166
 H        -0.327909        -0.839471        -0.666140
 H         2.315453         1.873744        -0.883359
 H         1.922368         2.036353         0.824708
 H         4.545313         1.328693         0.191563
 H         3.795111        -1.320291         1.681681
