19
Iteration:  4738
 C         4.604761        -1.159595        -1.329598
 C         3.474371        -0.491965        -0.619657
 O         2.091349        -0.419688        -1.170439
 C         1.454285         0.106966        -0.072585
 C         0.015880         0.136533        -0.294331
 C         2.258586         1.507139         0.126800
 C         3.618583         0.861253         0.207890
 C         3.229150        -0.605270         0.810619
 O         1.898332        -0.679125         1.052258
 H         5.506513        -0.690002        -0.919977
 H         4.532088        -2.249145        -1.113500
 H         4.588915        -1.009664        -2.434518
 H        -0.516660         0.680925         0.529832
 H        -0.273133         0.529730        -1.312646
 H        -0.394959        -0.869994        -0.407662
 H         2.148864         2.001938        -0.955404
 H         1.984714         1.999807         1.135165
 H         4.540717         1.363882         0.504881
 H         3.864317        -1.186834         1.595323
