19
Iteration:  3204charge 0 multiplicity 1
 C         4.587463        -1.118733        -1.349329
 C         3.451648        -0.472060        -0.621059
 O         2.147988        -0.294326        -1.249784
 C         1.480695         0.204076        -0.019352
 C         0.022331         0.271120        -0.396143
 C         2.298338         1.461123         0.294331
 C         3.625256         0.680495         0.377563
 C         3.178673        -0.735796         0.802764
 O         1.813994        -0.758099         0.945232
 H         5.335471        -0.442383        -1.865361
 H         5.163789        -1.815724        -0.745136
 H         4.166853        -1.766323        -2.178780
 H        -0.464829         0.586099         0.518124
 H         0.162335         0.930807        -1.277497
 H        -0.457294        -0.623147        -0.707779
 H         2.169102         2.163146        -0.510214
 H         1.977018         1.898250         1.195486
 H         4.637137         1.037376         0.555310
 H         3.865092        -1.361193         1.501826
