19
Iteration:  1709charge 0 multiplicity 1
 C         4.536425        -0.982161        -1.493903
 C         3.506123        -0.520760        -0.489421
 O         2.416633        -0.030837        -1.353226
 C         1.575459         0.325074        -0.213987
 C         0.096702         0.583692        -0.547964
 C         2.461328         1.261413         0.683287
 C         3.572087         0.284123         0.710518
 C         2.938355        -1.055653         0.784832
 O         1.559353        -0.764000         0.750937
 H         4.705129        -2.006769        -1.579802
 H         4.048526        -0.686714        -2.445174
 H         5.461263        -0.457844        -1.526722
 H        -0.587772         0.663174         0.304342
 H         0.032925         1.544372        -1.026247
 H        -0.365797        -0.150592        -1.275091
 H         2.662157         2.296623         0.253032
 H         2.117050         1.409181         1.766385
 H         4.447008         0.507632         1.363802
 H         3.310533        -1.900086         1.271435
