19
Iteration:  1476charge 0 multiplicity 1
 C         4.675369        -1.065421        -1.382028
 C         3.511146        -0.506912        -0.603605
 O         2.305152         0.031373        -1.373450
 C         1.522955         0.347128        -0.199075
 C         0.121260         0.692868        -0.477563
 C         2.416934         1.243489         0.701541
 C         3.637132         0.294057         0.658462
 C         2.884008        -1.098860         0.734280
 O         1.557026        -0.816986         0.710631
 H         5.480134        -1.220493        -0.688483
 H         4.346095        -1.962046        -1.921174
 H         5.079194        -0.425106        -2.166100
 H        -0.298936         0.783179         0.513823
 H         0.035383         1.650664        -1.005466
 H        -0.334721        -0.100463        -1.014724
 H         2.468748         2.312996         0.204539
 H         2.140894         1.351586         1.783113
 H         4.648333         0.570066         1.034303
 H         3.091408        -2.014395         1.342994
