19
Iteration:  3732charge 0 multiplicity 1
 C         4.644911        -1.113009        -1.413868
 C         3.481727        -0.469978        -0.570556
 O         2.181989        -0.359367        -1.254709
 C         1.435213         0.132699        -0.055486
 C        -0.039965         0.271841        -0.243156
 C         2.338591         1.453984         0.092595
 C         3.620785         0.739513         0.409558
 C         3.182694        -0.666005         0.844850
 O         1.809088        -0.782255         0.970583
 H         4.926709        -1.938842        -0.720918
 H         4.147476        -1.445809        -2.371567
 H         5.328425        -0.190508        -1.550396
 H        -0.492427         0.827704         0.560627
 H        -0.355190         0.809453        -1.070949
 H        -0.444302        -0.680296        -0.472493
 H         2.589978         1.861323        -0.891915
 H         1.915462         2.259228         0.652855
 H         4.584485         1.130219         0.734841
 H         3.659247        -1.310599         1.587634
