19
Iteration:  1105charge 0 multiplicity 1
 C         4.628962        -1.008507        -1.422298
 C         3.514219        -0.382595        -0.642054
 O         2.246131        -0.236288        -1.278931
 C         1.478464         0.175695        -0.068163
 C         0.045709         0.709608        -0.567463
 C         2.335748         1.305915         0.545543
 C         3.627152         0.502111         0.627807
 C         3.089121        -0.938011         0.756834
 O         1.685358        -0.933911         0.866421
 H         4.174639        -1.948590        -1.829214
 H         4.782675        -0.370810        -2.260119
 H         5.543436        -1.241036        -0.844769
 H        -0.715792         0.912119         0.222676
 H         0.231504         1.584623        -1.263119
 H        -0.470966        -0.078877        -1.164549
 H         2.494676         2.189193        -0.087146
 H         1.792034         1.532180         1.491741
 H         4.629794         0.696965         0.923399
 H         3.683331        -1.681068         1.325432
