19
Iteration:  1541
 C         4.547934        -1.043062        -1.538698
 C         3.518108        -0.571067        -0.542905
 O         2.457382        -0.087641        -1.270813
 C         1.519848         0.339263        -0.203145
 C         0.144068         0.808710        -0.549216
 C         2.332793         1.230104         0.763766
 C         3.602477         0.348183         0.681910
 C         2.940281        -1.022614         0.738262
 O         1.584013        -0.869181         0.662234
 H         5.439659        -0.670035        -1.118249
 H         4.612542        -2.094362        -1.459994
 H         4.286672        -0.786182        -2.534926
 H        -0.313546         0.787871         0.422043
 H        -0.040745         1.828688        -0.946564
 H        -0.378510         0.154108        -1.164461
 H         2.502907         2.352181         0.334648
 H         2.080498         1.132087         1.854308
 H         4.414203         0.594462         1.421351
 H         3.153918        -1.817787         1.391286
