19
Iteration:    51
 C         4.578708        -1.155176        -1.560511
 C         3.541395        -0.515373        -0.569918
 O         2.203672        -0.675481        -1.041631
 C         1.472601         0.097299        -0.101072
 C        -0.086791        -0.129639        -0.174927
 C         2.148949         1.475001        -0.018302
 C         3.629475         0.912012         0.051898
 C         3.332857        -0.301429         0.983150
 O         1.867161        -0.449793         1.147773
 H         5.285921        -0.391192        -1.970181
 H         5.169075        -2.027796        -1.196612
 H         3.959446        -1.461829        -2.436281
 H        -0.519148         0.182546         0.781229
 H        -0.563207         0.447212        -1.035861
 H        -0.247285        -1.200435        -0.346888
 H         1.883780         2.167453        -0.831296
 H         1.784500         2.104922         0.873238
 H         4.535819         1.497522        -0.082101
 H         3.862191        -0.657027         1.912981
