19
Iteration:  2577charge 0 multiplicity 1
 C         4.566773        -1.034264        -1.534777
 C         3.522838        -0.479258        -0.573749
 O         2.294398        -0.140706        -1.168404
 C         1.461575         0.168304        -0.117643
 C         0.109450         0.500413        -0.522108
 C         2.325863         1.382966         0.416488
 C         3.587341         0.517713         0.553571
 C         3.109910        -0.910060         0.840407
 O         1.671279        -0.897048         0.897191
 H         5.105337        -0.195126        -2.002421
 H         5.167033        -1.675742        -0.942826
 H         4.041984        -1.479830        -2.369117
 H        -0.520199         0.921094         0.301303
 H         0.058473         1.386585        -1.263991
 H        -0.368939        -0.432971        -0.885531
 H         2.488527         2.205725        -0.342478
 H         2.013037         2.015089         1.272391
 H         4.483448         0.967799         0.933190
 H         3.558489        -1.617788         1.573044
