19
Iteration:  2389
 C         4.572756        -0.973083        -1.556593
 C         3.605939        -0.526007        -0.526804
 O         2.353119        -0.212343        -1.228243
 C         1.514805         0.285313        -0.188696
 C         0.017599         0.516964        -0.472718
 C         2.444002         1.389175         0.503768
 C         3.646662         0.426139         0.624716
 C         2.925216        -0.968331         0.824088
 O         1.571998        -0.777973         0.762739
 H         4.634535        -2.063077        -1.824180
 H         4.292199        -0.346958        -2.384344
 H         5.608369        -0.658718        -1.231079
 H        -0.346110         0.680731         0.590879
 H        -0.164346         1.410254        -1.052693
 H        -0.316011        -0.507083        -0.850668
 H         2.367664         2.317100         0.005573
 H         2.148326         1.587176         1.523952
 H         4.564628         0.450414         1.186091
 H         3.366616        -1.579877         1.659457
