19
Iteration:  3999
 C         4.559349        -1.242476        -1.395425
 C         3.513664        -0.408926        -0.613300
 O         2.225234        -0.386395        -1.222773
 C         1.475986         0.156846        -0.143553
 C        -0.017072         0.260364        -0.326305
 C         2.188359         1.467070         0.271828
 C         3.629542         0.749789         0.359047
 C         3.233214        -0.618086         0.849371
 O         1.883291        -0.726209         0.929975
 H         4.343018        -2.294722        -1.179480
 H         4.377113        -0.898778        -2.569589
 H         5.540902        -1.028131        -0.892177
 H        -0.549571         0.670136         0.494506
 H        -0.250549         0.883543        -1.175345
 H        -0.562003        -0.671733        -0.476681
 H         2.069100         2.214328        -0.444860
 H         1.742819         1.724958         1.255496
 H         4.475608         1.249616         0.711469
 H         3.773305        -1.173084         1.614114
