19
Iteration:  1901charge 0 multiplicity 1
 C         4.634525        -1.039480        -1.355116
 C         3.509702        -0.384600        -0.559327
 O         2.275081        -0.110310        -1.292528
 C         1.456927         0.213205        -0.174060
 C         0.122502         0.736636        -0.353459
 C         2.407057         1.332527         0.512649
 C         3.618681         0.438627         0.697809
 C         3.022763        -0.980543         0.692206
 O         1.568835        -1.034903         0.647911
 H         4.213368        -1.393036        -2.360571
 H         5.559927        -0.346182        -1.656745
 H         5.017005        -2.035513        -0.938237
 H        -0.410985         0.962842         0.642963
 H         0.394061         1.684822        -0.860642
 H        -0.518893         0.030215        -1.064212
 H         2.675681         2.102813        -0.205722
 H         1.995889         1.859098         1.358500
 H         4.575600         0.628393         1.205271
 H         3.404835        -1.725246         1.331437
