19
Iteration:   905charge 0 multiplicity 1
 C         4.558593        -1.129525        -1.361876
 C         3.497904        -0.416248        -0.607431
 O         2.300565        -0.191333        -1.319302
 C         1.484227         0.244030        -0.043248
 C        -0.019283         0.349573        -0.420701
 C         2.398672         1.380144         0.410130
 C         3.624750         0.620145         0.474940
 C         3.107372        -0.791601         0.833158
 O         1.693757        -0.851227         0.858636
 H         4.720970        -2.105843        -0.914346
 H         4.087272        -1.042865        -2.370726
 H         5.567787        -0.628955        -1.404817
 H        -0.646185         0.783522         0.419131
 H        -0.131372         1.121707        -1.196721
 H        -0.303655        -0.703976        -0.827016
 H         2.338491         2.209926        -0.276658
 H         2.054197         1.745391         1.372063
 H         4.549754         1.082785         0.670408
 H         3.710758        -1.609725         1.154830
