19
Iteration:  1884charge 0 multiplicity 1
 C         4.586707        -1.038776        -1.403388
 C         3.471418        -0.444122        -0.611595
 O         2.287492        -0.075595        -1.283035
 C         1.490888         0.223109        -0.059587
 C         0.137372         0.736747        -0.523994
 C         2.390046         1.328773         0.576128
 C         3.530476         0.386074         0.676453
 C         3.074567        -1.040524         0.703310
 O         1.668625        -0.933879         0.752452
 H         4.380006        -1.211054        -2.412388
 H         5.408531        -0.365525        -1.387811
 H         4.867548        -1.976237        -0.966270
 H        -0.390970         0.904576         0.379238
 H         0.144934         1.698616        -1.050025
 H        -0.504246         0.152038        -1.067927
 H         2.538728         2.029840        -0.306999
 H         1.836492         1.646741         1.539074
 H         4.415140         0.784188         1.152378
 H         3.509880        -2.082358         0.994485
