19
Iteration:  2848
 C         4.568183        -0.944056        -1.544115
 C         3.475951        -0.527570        -0.583859
 O         2.247764        -0.267301        -1.224127
 C         1.517483         0.217870        -0.122971
 C         0.072027         0.426131        -0.523174
 C         2.407250         1.369603         0.482700
 C         3.681656         0.481124         0.537256
 C         3.041502        -0.873028         0.872148
 O         1.647269        -0.701908         0.891240
 H         5.139476        -0.057827        -1.730338
 H         5.170335        -1.624132        -0.962256
 H         4.013470        -1.453101        -2.401186
 H        -0.390629         0.573990         0.422544
 H        -0.068889         1.141039        -1.332660
 H        -0.342997        -0.402767        -1.009056
 H         2.476557         2.240404        -0.113912
 H         1.954770         1.499898         1.440481
 H         4.762670         0.784438         0.822716
 H         3.476884        -1.745930         1.451336
