19
Iteration:  2769
 C         4.643517        -1.195951        -1.427404
 C         3.506073        -0.490485        -0.621626
 O         2.321141        -0.182280        -1.306671
 C         1.472248         0.190230        -0.208288
 C        -0.015425         0.537774        -0.336965
 C         2.298740         1.367533         0.559142
 C         3.584485         0.563329         0.622046
 C         3.136273        -0.864267         0.781748
 O         1.711346        -0.790441         0.710703
 H         4.613585        -0.931934        -2.526798
 H         5.601608        -0.727979        -1.289259
 H         4.808228        -2.297406        -1.183224
 H        -0.492490         1.025369         0.483613
 H        -0.094797         1.367457        -0.983729
 H        -0.755224        -0.217742        -0.578680
 H         2.371408         2.312957        -0.061900
 H         1.637634         1.632993         1.437532
 H         4.388735         0.967976         1.126341
 H         3.577201        -1.620491         1.352780
