19
Iteration:   200
 C         4.522856        -1.155466        -1.411271
 C         3.496091        -0.421807        -0.586625
 O         2.194745        -0.698121        -1.073186
 C         1.431581         0.000681        -0.083665
 C        -0.088675         0.080782        -0.343721
 C         2.111159         1.464182        -0.024751
 C         3.530999         0.936040         0.146518
 C         3.381138        -0.329048         0.875047
 O         2.018575        -0.613846         1.196930
 H         4.286434        -2.198084        -1.399754
 H         4.621738        -0.861857        -2.458662
 H         5.525185        -1.095313        -0.972928
 H        -0.518493         0.584921         0.509916
 H        -0.076739         0.810876        -1.189088
 H        -0.569028        -0.858074        -0.563792
 H         1.976437         2.067673        -0.961127
 H         1.920357         2.008277         0.906498
 H         4.374507         1.559511         0.395936
 H         4.113994        -0.688978         1.584002
