19
Iteration:  2163
 C         4.684330        -1.078402        -1.503004
 C         3.571839        -0.555350        -0.584160
 O         2.304109        -0.046998        -1.249360
 C         1.512280         0.363835        -0.152787
 C         0.059306         0.564061        -0.501810
 C         2.392138         1.323923         0.654659
 C         3.594617         0.371955         0.568859
 C         2.907915        -1.020117         0.748234
 O         1.591362        -0.755549         0.774310
 H         4.642308        -0.729987        -2.512521
 H         5.664612        -0.681457        -1.152426
 H         4.560749        -2.160753        -1.462706
 H        -0.511812         0.605493         0.486231
 H        -0.055832         1.410332        -1.326796
 H        -0.140404        -0.489362        -0.943081
 H         2.547941         2.433023         0.350101
 H         2.176424         1.291132         1.793892
 H         4.544817         0.653158         1.040858
 H         3.251939        -1.874103         1.236068
