19
Iteration:  2105
 C         4.574225        -1.053671        -1.583266
 C         3.552497        -0.534050        -0.536864
 O         2.393112        -0.123510        -1.256499
 C         1.473226         0.221073        -0.119849
 C         0.155285         0.744729        -0.530306
 C         2.325164         1.345092         0.567714
 C         3.618242         0.428786         0.730322
 C         3.002086        -0.937810         0.764191
 O         1.568917        -0.937382         0.777741
 H         3.955125        -1.117919        -2.563776
 H         5.438038        -0.426230        -1.623533
 H         5.006937        -2.078660        -1.305116
 H        -0.464815         0.933590         0.332147
 H         0.113930         1.588799        -1.113168
 H        -0.365116        -0.076939        -1.018444
 H         2.419725         2.241909        -0.111926
 H         1.828914         1.699994         1.584157
 H         4.572703         0.645000         1.192157
 H         3.377358        -1.761698         1.457775
