19
Iteration:   617
 C         4.564122        -1.091067        -1.413741
 C         3.505532        -0.468053        -0.614091
 O         2.237816        -0.440739        -1.204132
 C         1.512219         0.205029        -0.215344
 C        -0.038888         0.162660        -0.338109
 C         2.264816         1.433569         0.254904
 C         3.640265         0.748659         0.340388
 C         3.247215        -0.633917         0.891220
 O         1.732780        -0.637762         0.996782
 H         4.258497        -0.971162        -2.456418
 H         5.560560        -0.655563        -1.348615
 H         4.441008        -2.147719        -1.284041
 H        -0.395241         0.338504         0.708891
 H        -0.449956         0.760483        -1.217101
 H        -0.206355        -0.911334        -0.528905
 H         2.124808         2.344518        -0.296180
 H         1.939468         1.637713         1.272411
 H         4.685386         1.068685         0.612478
 H         3.853503        -1.237572         1.667716
