19
Iteration:  3189
 C         4.571772        -1.100291        -1.390190
 C         3.480042        -0.442208        -0.672268
 O         2.198669        -0.275071        -1.194594
 C         1.479875         0.179720        -0.107636
 C         0.015219         0.351441        -0.349807
 C         2.322690         1.402011         0.218070
 C         3.597498         0.647312         0.384476
 C         3.215658        -0.755663         0.856174
 O         1.744628        -0.817044         0.976101
 H         5.229003        -0.352619        -1.933795
 H         5.333783        -1.276388        -0.482641
 H         4.317626        -1.870310        -2.078350
 H        -0.593930         0.754447         0.471219
 H        -0.364768         0.974164        -1.065200
 H        -0.216955        -0.745438        -0.458718
 H         2.508448         2.018935        -0.693467
 H         2.054329         2.084103         1.064599
 H         4.458651         1.216116         0.696610
 H         3.668118        -1.471918         1.386593
