19
Iteration:     6charge 0 multiplicity 1
 C         4.535955        -1.094192        -1.452316
 C         3.486910        -0.414222        -0.595209
 O         2.127590        -0.627053        -1.110205
 C         1.482283         0.054126        -0.007978
 C         0.019579        -0.100792        -0.166051
 C         2.151754         1.425895        -0.123722
 C         3.557879         0.940866         0.119281
 C         3.336374        -0.353998         0.883881
 O         1.940436        -0.521415         1.180892
 H         5.552298        -0.969593        -1.016080
 H         4.352273        -2.208794        -1.348731
 H         4.616297        -0.847411        -2.548339
 H        -0.402277         0.393066         0.727257
 H        -0.395593         0.327032        -1.088369
 H        -0.186333        -1.181258        -0.088928
 H         1.984454         1.886327        -1.113920
 H         1.708973         2.154520         0.589907
 H         4.528460         1.448384        -0.046690
 H         3.990723        -0.866275         1.598081
