19
Iteration:  2261charge 0 multiplicity 1
 C         4.534695        -0.983508        -1.508015
 C         3.433731        -0.565888        -0.608619
 O         2.282448        -0.126515        -1.218931
 C         1.502698         0.330123        -0.071279
 C         0.135801         0.541815        -0.645878
 C         2.480078         1.327065         0.626124
 C         3.617645         0.452280         0.666385
 C         3.012453        -0.974889         0.767840
 O         1.618102        -0.838281         0.806811
 H         5.472949        -0.513340        -1.211635
 H         4.810857        -2.106610        -1.458232
 H         4.123675        -0.644527        -2.476595
 H        -0.445747         0.716220         0.269060
 H         0.173526         1.316049        -1.415164
 H        -0.212972        -0.398184        -1.086871
 H         2.758229         2.194355        -0.094549
 H         2.061090         1.616828         1.674427
 H         4.555817         0.867646         1.010776
 H         3.366124        -1.887466         1.340413
