19
Iteration:  1624
 C         4.656749        -1.006623        -1.459849
 C         3.568237        -0.522341        -0.604416
 O         2.396574        -0.079411        -1.313653
 C         1.555761         0.357460        -0.207834
 C         0.043018         0.635264        -0.400056
 C         2.433561         1.315643         0.672347
 C         3.645495         0.267599         0.745586
 C         2.857791        -1.074749         0.714677
 O         1.496392        -0.746164         0.582197
 H         5.542350        -1.408177        -0.757943
 H         4.358519        -1.849553        -2.177702
 H         5.111615        -0.107236        -2.001670
 H        -0.337730         0.907918         0.614433
 H        -0.079970         1.468439        -1.120181
 H        -0.522991        -0.334833        -0.652911
 H         2.544850         2.273194         0.359359
 H         1.983645         1.344911         1.652475
 H         4.603613         0.135987         1.312538
 H         3.061547        -1.635650         1.605015
