19
Iteration:  3858charge 0 multiplicity 1
 C         4.645736        -1.215093        -1.408067
 C         3.493937        -0.472120        -0.620827
 O         2.227638        -0.402161        -1.320310
 C         1.490450         0.137660        -0.155127
 C        -0.008547         0.327431        -0.316448
 C         2.222055         1.459914         0.396793
 C         3.654513         0.739328         0.322650
 C         3.193442        -0.666479         0.850582
 O         1.767479        -0.663302         0.961256
 H         5.469500        -0.521110        -1.223928
 H         4.612123        -2.260658        -1.118002
 H         4.468343        -1.131392        -2.477994
 H        -0.573015         0.690622         0.573067
 H        -0.196901         0.919292        -1.307832
 H        -0.463844        -0.722519        -0.455962
 H         1.950037         2.372100        -0.074260
 H         1.856203         1.452492         1.473309
 H         4.630845         1.141924         0.704310
 H         3.713186        -1.370163         1.487422
