19
Iteration:  1348
 C         4.624515        -1.088369        -1.418597
 C         3.517010        -0.362857        -0.572279
 O         2.335444        -0.005977        -1.274750
 C         1.498591         0.254365        -0.103798
 C         0.112663         0.767890        -0.443491
 C         2.362957         1.331082         0.554569
 C         3.555981         0.353415         0.765015
 C         3.030419        -1.104120         0.681449
 O         1.614956        -0.991035         0.650351
 H         3.984075        -1.814597        -1.861482
 H         5.215456        -0.551803        -2.314892
 H         5.251990        -1.484691        -0.593096
 H        -0.447569         0.954512         0.519840
 H         0.224414         1.825835        -0.937397
 H        -0.490911         0.122238        -1.094115
 H         2.423849         2.012812        -0.236681
 H         1.735748         1.672497         1.361739
 H         4.580324         0.576238         1.007719
 H         3.573214        -1.931530         1.253675
