19
Iteration:  4295
 C         4.524733        -1.255094        -1.336331
 C         3.496849        -0.365785        -0.595740
 O         2.174130        -0.352155        -1.239984
 C         1.418066         0.150080        -0.087558
 C         0.000149         0.114716        -0.251008
 C         2.212827         1.408086         0.051787
 C         3.643744         0.845554         0.303429
 C         3.302692        -0.520151         0.858193
 O         1.864913        -0.743885         1.036509
 H         5.075325        -1.984649        -0.627875
 H         3.998383        -1.860518        -2.181443
 H         5.162352        -0.545756        -1.764367
 H        -0.365499         0.648530         0.666038
 H        -0.539867         0.564500        -1.137412
 H        -0.343799        -0.976442        -0.341437
 H         2.321819         1.931652        -0.917387
 H         1.978704         2.268336         0.944136
 H         4.510272         1.436692         0.602945
 H         4.074111        -1.221967         1.378130
