19
Iteration:   677
 C         4.563759        -1.012438        -1.451666
 C         3.438895        -0.501059        -0.560691
 O         2.223093        -0.452498        -1.230504
 C         1.452673         0.084079        -0.153851
 C        -0.005607         0.267014        -0.346331
 C         2.324566         1.451540         0.265694
 C         3.613530         0.717302         0.412072
 C         3.230023        -0.693768         0.876573
 O         1.807490        -0.697696         0.968386
 H         4.431795        -2.087033        -1.649701
 H         4.737166        -0.439305        -2.372030
 H         5.570038        -0.727852        -0.959965
 H        -0.468957         0.930290         0.396240
 H        -0.142809         0.882291        -1.204163
 H        -0.702184        -0.586926        -0.485523
 H         2.260497         1.985195        -0.735209
 H         1.878563         2.049222         1.137172
 H         4.616182         1.195377         0.556016
 H         3.602008        -1.309893         1.689336
