19
Iteration:  1424charge 0 multiplicity 1
 C         4.547446        -0.924887        -1.513076
 C         3.473290        -0.499397        -0.582062
 O         2.334903         0.011359        -1.190344
 C         1.484987         0.275629        -0.093317
 C         0.199868         0.717462        -0.620923
 C         2.460113         1.313391         0.581408
 C         3.617847         0.283109         0.725026
 C         2.974701        -1.043148         0.818822
 O         1.517927        -1.013036         0.739307
 H         4.664590        -1.970316        -1.244741
 H         4.071732        -0.882769        -2.624455
 H         5.450634        -0.236015        -1.475695
 H        -0.415042         1.249187         0.123415
 H         0.399545         1.457562        -1.485498
 H        -0.230834        -0.086572        -1.173023
 H         2.838976         1.951383        -0.095263
 H         2.134779         1.726202         1.500236
 H         4.617303         0.485840         1.191547
 H         3.398985        -1.890448         1.388486
