19
Iteration:  3222charge 0 multiplicity 1
 C         4.574993        -1.176915        -1.468712
 C         3.508216        -0.447174        -0.623424
 O         2.245999        -0.397781        -1.248085
 C         1.441224         0.193920        -0.145726
 C        -0.065497         0.296783        -0.425829
 C         2.325646         1.443607         0.413371
 C         3.639667         0.731176         0.364563
 C         3.240164        -0.681551         0.846236
 O         1.765715        -0.695365         1.017369
 H         5.248589        -0.358526        -1.755585
 H         4.916326        -2.114363        -0.914870
 H         4.132908        -1.643106        -2.316822
 H        -0.653067         0.587196         0.484753
 H        -0.254014         0.839755        -1.318106
 H        -0.401474        -0.725383        -0.753868
 H         2.292833         2.387510        -0.191562
 H         2.046304         1.631651         1.473315
 H         4.514929         1.219149         0.675249
 H         3.683491        -1.400209         1.460242
