19
Iteration:  1983charge 0 multiplicity 1
 C         4.520288        -1.082770        -1.558996
 C         3.522551        -0.495880        -0.547256
 O         2.339702         0.011729        -1.217755
 C         1.459221         0.272612        -0.116670
 C         0.150748         0.692420        -0.651040
 C         2.434727         1.334354         0.626384
 C         3.596033         0.418042         0.723405
 C         3.030314        -1.029477         0.808912
 O         1.577372        -0.978133         0.785628
 H         4.394013        -2.177145        -1.692515
 H         4.262743        -0.638110        -2.546984
 H         5.558617        -0.783540        -1.397133
 H        -0.512569         0.960452         0.111946
 H         0.335433         1.495080        -1.356034
 H        -0.291738        -0.063017        -1.174349
 H         2.474615         2.237679        -0.043774
 H         2.200787         1.483286         1.746719
 H         4.546980         0.717784         1.219987
 H         3.470749        -1.835086         1.308010
