19
Iteration:  1126charge 0 multiplicity 1
 C         4.598672        -0.936633        -1.501711
 C         3.485759        -0.566718        -0.601603
 O         2.227319        -0.113201        -1.185931
 C         1.478605         0.213677        -0.114224
 C         0.115295         0.635189        -0.590991
 C         2.367698         1.345966         0.519678
 C         3.637617         0.458355         0.616357
 C         3.073306        -1.004271         0.793944
 O         1.661214        -0.916512         0.853763
 H         4.769585        -2.048670        -1.359289
 H         4.272792        -0.689336        -2.461551
 H         5.474133        -0.446081        -1.039634
 H        -0.685229         0.733451         0.162804
 H         0.183641         1.575454        -1.205845
 H        -0.244781        -0.151597        -1.273598
 H         2.552529         2.064071        -0.198306
 H         2.126725         1.819919         1.416288
 H         4.427116         0.969017         1.119067
 H         3.502928        -1.856055         1.375049
