19
Iteration:   484
 C         4.611520        -1.080988        -1.439212
 C         3.548101        -0.513870        -0.579508
 O         2.172568        -0.419769        -1.159239
 C         1.409362         0.228097        -0.100491
 C        -0.091891         0.008052        -0.248727
 C         2.317657         1.537478         0.011890
 C         3.618432         0.711028         0.323061
 C         3.283272        -0.580211         0.929603
 O         1.803142        -0.644111         1.003019
 H         5.003980        -1.985037        -0.967255
 H         4.114711        -1.304898        -2.380839
 H         5.391706        -0.334918        -1.650122
 H        -0.736873         0.627864         0.485288
 H        -0.485119         0.446907        -1.196024
 H        -0.329797        -1.119843        -0.214412
 H         2.430790         2.082194        -0.877849
 H         2.074270         2.109102         0.960297
 H         4.537240         1.170692         0.565485
 H         3.715627        -1.134029         1.696654
