19
Iteration:  3035
 C         4.587553        -1.022833        -1.322713
 C         3.448113        -0.432014        -0.670235
 O         2.219988        -0.266495        -1.262677
 C         1.449926         0.169975        -0.041021
 C        -0.018070         0.415746        -0.372823
 C         2.423001         1.466801         0.338958
 C         3.638793         0.580336         0.436312
 C         3.138713        -0.886258         0.773890
 O         1.712560        -0.824728         0.893055
 H         4.747143        -2.096512        -1.198453
 H         4.808737        -0.929017        -2.455482
 H         5.550249        -0.490911        -1.081851
 H        -0.472867         0.672296         0.594713
 H        -0.126069         1.157560        -1.148068
 H        -0.542132        -0.433079        -0.818589
 H         2.474669         2.172838        -0.470613
 H         2.033319         1.892778         1.260558
 H         4.659991         0.772952         0.607905
 H         3.607327        -1.514354         1.590131
