19
Iteration:   446
 C         4.536285        -1.153073        -1.415121
 C         3.474969        -0.418837        -0.627122
 O         2.170308        -0.521439        -1.125557
 C         1.488829         0.130819        -0.100706
 C        -0.017956         0.123917        -0.371752
 C         2.154746         1.459662         0.150306
 C         3.575493         0.757102         0.276196
 C         3.304978        -0.524054         0.888095
 O         1.916307        -0.594041         1.062418
 H         4.290200        -2.253467        -1.529218
 H         4.560708        -0.758663        -2.483271
 H         5.584178        -1.138062        -1.036248
 H        -0.551612         0.495172         0.442706
 H        -0.025319         0.540797        -1.369206
 H        -0.206472        -0.907801        -0.498521
 H         2.068244         2.358628        -0.559275
 H         1.876510         1.842969         1.094704
 H         4.479422         1.378572         0.422866
 H         4.014524        -0.966927         1.611711
