19
Iteration:  2303charge 0 multiplicity 1
 C         4.497554        -1.064153        -1.517107
 C         3.500129        -0.445892        -0.531344
 O         2.391281        -0.127580        -1.263165
 C         1.531826         0.289165        -0.237823
 C         0.056828         0.531137        -0.465016
 C         2.389988         1.337085         0.566974
 C         3.609550         0.429372         0.699795
 C         3.028591        -0.937980         0.775395
 O         1.631004        -0.830863         0.756073
 H         5.311615        -1.535957        -0.864977
 H         4.219699        -1.905285        -2.173686
 H         4.937034        -0.163503        -2.063326
 H        -0.495963         0.825520         0.400312
 H        -0.138313         1.285147        -1.134107
 H        -0.491934        -0.330435        -0.822686
 H         2.588663         2.215339        -0.084281
 H         2.011737         1.586747         1.607324
 H         4.519608         0.789374         1.168804
 H         3.492036        -1.846667         1.259377
