19
Iteration:  3164
 C         4.629984        -1.045368        -1.428287
 C         3.541148        -0.524757        -0.586576
 O         2.245197        -0.405310        -1.273344
 C         1.464484         0.120391        -0.173329
 C        -0.017920         0.342729        -0.253769
 C         2.324419         1.456017         0.284461
 C         3.585904         0.631678         0.465219
 C         3.170912        -0.759778         0.851060
 O         1.730626        -0.661034         0.879324
 H         4.573801        -0.477164        -2.342948
 H         5.666141        -0.792722        -1.098943
 H         4.365983        -2.081807        -1.826261
 H        -0.605011         0.881395         0.577105
 H        -0.271173         1.115280        -1.122586
 H        -0.532064        -0.619293        -0.434979
 H         2.317275         2.257673        -0.531543
 H         2.008642         1.966635         1.351820
 H         4.661242         0.860454         0.771996
 H         3.500386        -1.456676         1.728293
