19
Iteration:  4187charge 0 multiplicity 1
 C         4.564527        -1.146853        -1.443897
 C         3.491971        -0.532659        -0.573934
 O         2.181225        -0.495408        -1.244557
 C         1.463863         0.119749        -0.157851
 C        -0.024504         0.203034        -0.287902
 C         2.260016         1.518079         0.141187
 C         3.565445         0.788155         0.338674
 C         3.318278        -0.584911         0.964302
 O         1.792188        -0.655734         1.012754
 H         5.377287        -0.448109        -1.750807
 H         5.285911        -1.905737        -0.954202
 H         4.054315        -1.462727        -2.350339
 H        -0.453743         0.598535         0.606622
 H        -0.173137         0.846895        -1.115106
 H        -0.369969        -0.789581        -0.297653
 H         2.361927         2.251689        -0.624749
 H         1.973890         1.966553         1.088439
 H         4.460965         1.355168         0.400483
 H         3.913066        -1.125001         1.617790
