19
Iteration:   449
 C         4.523763        -1.134229        -1.411305
 C         3.486830        -0.433144        -0.632279
 O         2.189069        -0.522071        -1.146418
 C         1.485861         0.149860        -0.115774
 C         0.029699         0.104722        -0.352635
 C         2.158283         1.443444         0.151451
 C         3.575631         0.748582         0.252852
 C         3.303891        -0.533547         0.890553
 O         1.873456        -0.565999         1.076584
 H         4.311695        -2.203619        -1.500006
 H         4.501663        -0.868124        -2.505017
 H         5.618175        -1.031475        -1.092652
 H        -0.565676         0.490058         0.481396
 H        -0.104979         0.528456        -1.380391
 H        -0.287501        -0.947591        -0.449478
 H         2.078113         2.358503        -0.415759
 H         1.923261         1.800599         1.121902
 H         4.461818         1.404717         0.464942
 H         3.980741        -1.019705         1.680568
