19
Iteration:  4051charge 0 multiplicity 1
 C         4.650065        -1.015603        -1.414930
 C         3.397045        -0.496024        -0.644147
 O         2.108991        -0.393531        -1.179878
 C         1.424008         0.173604        -0.001661
 C        -0.001930         0.174965        -0.380159
 C         2.374951         1.415761         0.058785
 C         3.660242         0.675913         0.401567
 C         3.263627        -0.663851         0.840558
 O         1.765821        -0.676742         1.081729
 H         4.235595        -1.480120        -2.270042
 H         5.301129        -0.203122        -1.693525
 H         5.100296        -1.718200        -0.743903
 H        -0.614468         0.538052         0.414085
 H        -0.145937         0.828532        -1.259324
 H        -0.448548        -0.816404        -0.475408
 H         2.529481         1.830588        -0.980427
 H         2.213244         2.234134         0.771612
 H         4.436923         1.293551         0.705969
 H         3.857781        -1.313416         1.466576
