19
Iteration:  1513charge 0 multiplicity 1
 C         4.627051        -1.054692        -1.408191
 C         3.505045        -0.430122        -0.557180
 O         2.273689         0.105028        -1.293848
 C         1.501376         0.344009        -0.141334
 C         0.119683         0.638616        -0.484273
 C         2.558933         1.389321         0.632275
 C         3.626331         0.260489         0.772580
 C         2.889306        -1.118650         0.658270
 O         1.535509        -0.947650         0.634643
 H         5.632389        -0.959749        -0.927535
 H         4.477294        -2.180192        -1.116906
 H         4.629732        -0.826235        -2.526782
 H        -0.520202         0.645642         0.438403
 H        -0.051111         1.603431        -0.989343
 H        -0.264162        -0.130473        -1.226754
 H         2.908848         1.931853        -0.142815
 H         2.317223         1.987937         1.497508
 H         4.533206         0.338947         1.338716
 H         3.132194        -2.021404         1.202716
