19
Iteration:   592
 C         4.554720        -1.159106        -1.462871
 C         3.517909        -0.489037        -0.602487
 O         2.222582        -0.324960        -1.219768
 C         1.487250         0.175019        -0.069502
 C        -0.038147         0.062954        -0.316538
 C         2.310344         1.537095         0.134908
 C         3.591654         0.763656         0.427760
 C         3.231264        -0.640547         0.929190
 O         1.766797        -0.679622         0.976187
 H         4.773926        -0.411496        -2.297150
 H         5.553694        -1.306094        -0.943462
 H         4.075381        -2.059758        -2.029276
 H        -0.601662         0.221586         0.624945
 H        -0.216729         0.639443        -1.194098
 H        -0.179621        -1.007939        -0.635344
 H         2.326172         2.065869        -0.775810
 H         2.117292         2.257801         0.976384
 H         4.509463         1.260309         0.752681
 H         3.635680        -1.333320         1.615025
