19
Iteration:  1481charge 0 multiplicity 1
 C         4.666574        -1.055212        -1.338382
 C         3.496168        -0.544617        -0.597481
 O         2.303896         0.063417        -1.357383
 C         1.494871         0.355309        -0.149529
 C         0.079017         0.677862        -0.463612
 C         2.440795         1.271071         0.686171
 C         3.702782         0.295493         0.644468
 C         2.899628        -1.112812         0.701338
 O         1.543078        -0.816784         0.669046
 H         5.584559        -1.107882        -0.687389
 H         4.398314        -2.078630        -1.791368
 H         5.067310        -0.479066        -2.211112
 H        -0.545740         0.700707         0.467796
 H         0.086654         1.626664        -1.033500
 H        -0.276598        -0.230684        -1.040059
 H         2.640528         2.189442         0.239953
 H         2.085932         1.548427         1.673779
 H         4.694402         0.517497         1.013811
 H         3.031087        -2.022888         1.248737
