19
Iteration:     9
 C         4.525096        -1.088615        -1.470545
 C         3.485425        -0.393877        -0.595145
 O         2.114424        -0.620515        -1.125707
 C         1.487866         0.052663         0.001744
 C         0.052766        -0.107828        -0.161440
 C         2.164766         1.413369        -0.156984
 C         3.572954         0.959249         0.154940
 C         3.327048        -0.356832         0.895236
 O         1.918431        -0.533049         1.198017
 H         5.524188        -0.951573        -1.081580
 H         4.347506        -2.111060        -1.280297
 H         4.569503        -0.937999        -2.518623
 H        -0.362456         0.360225         0.741374
 H        -0.397719         0.339377        -1.106327
 H        -0.126498        -1.186408        -0.084609
 H         2.031286         1.774155        -1.187196
 H         1.662393         2.211583         0.518714
 H         4.529435         1.403493        -0.087889
 H         3.991458        -0.928557         1.606657
