19
Iteration:   751
 C         4.557628        -1.169808        -1.412135
 C         3.484707        -0.363528        -0.580488
 O         2.185256        -0.313239        -1.214214
 C         1.455747         0.145317        -0.124054
 C         0.045692         0.334864        -0.486286
 C         2.234956         1.384049         0.348824
 C         3.654569         0.750119         0.403573
 C         3.251692        -0.710795         0.819860
 O         1.805329        -0.797776         1.018838
 H         5.505468        -1.196907        -0.907762
 H         4.249027        -2.209634        -1.631689
 H         4.686734        -0.771778        -2.395724
 H        -0.493637         0.556291         0.497462
 H        -0.259582         1.093443        -1.271699
 H        -0.582353        -0.581993        -0.770991
 H         2.218706         2.113549        -0.543799
 H         1.827410         1.747244         1.312941
 H         4.659055         1.290242         0.471653
 H         3.806179        -1.456729         1.416333
