19
Iteration:  4500charge 0 multiplicity 1
 C         4.540472        -1.090121        -1.484088
 C         3.552048        -0.510678        -0.570190
 O         2.154735        -0.545933        -1.106932
 C         1.450393         0.134764        -0.084724
 C        -0.058278         0.046466        -0.301403
 C         2.258026         1.476608         0.016041
 C         3.644417         0.854494         0.249406
 C         3.268422        -0.512740         0.948487
 O         1.851025        -0.587020         1.093090
 H         4.103583        -1.765880        -2.246586
 H         5.243741        -0.298855        -1.979146
 H         5.249265        -1.887898        -1.138778
 H        -0.553535         0.484702         0.589460
 H        -0.248534         0.726364        -1.152668
 H        -0.332079        -1.024638        -0.394710
 H         2.226218         1.955008        -0.924053
 H         1.881694         2.134259         0.802030
 H         4.484708         1.490180         0.529540
 H         3.672472        -1.221776         1.542827
