19
Iteration:  4421
 C         4.564431        -1.134136        -1.378935
 C         3.503846        -0.470210        -0.620923
 O         2.128663        -0.530442        -1.166016
 C         1.464202         0.096139        -0.125642
 C         0.016596         0.127523        -0.259895
 C         2.236553         1.470205         0.069856
 C         3.612477         0.858135         0.219826
 C         3.291618        -0.545368         0.857066
 O         1.851218        -0.623578         1.099290
 H         4.153459        -1.971913        -2.008915
 H         5.075030        -0.390724        -2.027885
 H         5.375285        -1.546594        -0.552900
 H        -0.569835         0.510131         0.542795
 H        -0.226263         0.688557        -1.145128
 H        -0.375262        -0.910555        -0.272107
 H         1.953343         2.238416        -0.714110
 H         1.946458         2.021564         0.946751
 H         4.530658         1.451482         0.229077
 H         3.867649        -1.206148         1.614891
