19
Iteration:  3673charge 0 multiplicity 1
 C         4.484586        -1.158656        -1.419486
 C         3.505862        -0.429970        -0.621599
 O         2.200597        -0.382816        -1.140303
 C         1.429003         0.146526         0.004612
 C        -0.000333         0.214163        -0.498864
 C         2.304586         1.491843         0.238060
 C         3.570981         0.755747         0.304367
 C         3.259553        -0.650381         0.840512
 O         1.844073        -0.721622         1.065340
 H         4.902505        -2.044600        -0.947621
 H         4.024968        -1.494611        -2.312239
 H         5.368793        -0.653550        -1.721182
 H        -0.731297         0.490585         0.260273
 H         0.095802         0.862257        -1.430311
 H        -0.286056        -0.844851        -0.702857
 H         2.473194         2.193955        -0.598842
 H         2.062621         2.046694         1.230418
 H         4.509462         1.205821         0.551857
 H         3.896563        -1.271101         1.385956
