19
Iteration:  4556
 C         4.611230        -1.036448        -1.444868
 C         3.517527        -0.464395        -0.602385
 O         2.201327        -0.652385        -1.114738
 C         1.461997         0.102325        -0.133637
 C        -0.079736         0.198407        -0.292850
 C         2.261452         1.505113         0.090425
 C         3.567254         0.755730         0.194424
 C         3.299917        -0.595004         0.892951
 O         1.817613        -0.585112         1.106797
 H         4.540505        -2.164856        -1.627065
 H         4.552851        -0.716132        -2.595179
 H         5.548993        -0.704835        -1.002794
 H        -0.342157         0.708330         0.690960
 H        -0.417468         0.743043        -1.222077
 H        -0.540075        -0.785146        -0.411236
 H         2.194992         2.206135        -0.648108
 H         1.838089         1.846132         1.049429
 H         4.587804         1.255514         0.266318
 H         3.743774        -0.934870         1.861809
