19
Iteration:  4366
 C         4.502576        -0.995705        -1.455822
 C         3.457334        -0.494880        -0.586981
 O         2.181441        -0.558816        -1.087283
 C         1.491597         0.173711        -0.050369
 C         0.020359         0.190975        -0.372861
 C         2.277847         1.432745         0.015642
 C         3.571573         0.705649         0.276266
 C         3.291027        -0.584514         0.891261
 O         1.868112        -0.625247         1.127386
 H         4.622451        -2.080751        -1.228695
 H         4.072207        -0.914579        -2.441597
 H         5.391021        -0.204254        -1.297080
 H        -0.548631         0.562222         0.437826
 H        -0.375345         0.578395        -1.264135
 H        -0.243974        -0.833136        -0.559049
 H         2.224109         1.708340        -1.090774
 H         2.083822         2.188189         0.719398
 H         4.462914         1.238529         0.609992
 H         3.858461        -1.188034         1.557731
