19
Iteration:  1290charge 0 multiplicity 1
 C         4.633101        -0.934262        -1.489626
 C         3.465096        -0.517415        -0.596124
 O         2.267461        -0.031144        -1.250428
 C         1.529654         0.371857        -0.107081
 C         0.094729         0.526613        -0.622029
 C         2.565650         1.300338         0.608448
 C         3.618475         0.282292         0.731255
 C         2.927460        -1.033020         0.738053
 O         1.535865        -0.806826         0.836957
 H         4.321231        -0.736919        -2.601322
 H         5.618120        -0.466813        -1.205591
 H         4.791070        -2.052591        -1.689111
 H        -0.632303         0.570599         0.203904
 H        -0.039701         1.424316        -1.139306
 H        -0.264517        -0.331699        -1.265736
 H         2.823580         2.114921         0.012915
 H         2.198924         1.689227         1.506379
 H         4.589230         0.408610         1.274976
 H         3.406233        -1.915668         1.042951
