19
Iteration:  2020charge 0 multiplicity 1
 C         4.560866        -1.064447        -1.449413
 C         3.523801        -0.527345        -0.547692
 O         2.327376        -0.133038        -1.308226
 C         1.528894         0.286902        -0.176148
 C         0.106288         0.723477        -0.497405
 C         2.373373         1.337187         0.651123
 C         3.632028         0.458448         0.704302
 C         3.008820        -0.995241         0.731636
 O         1.581977        -0.926172         0.664800
 H         4.537433        -2.153074        -1.619157
 H         4.356592        -0.580616        -2.359082
 H         5.580440        -0.876984        -1.089074
 H        -0.219349         1.135629         0.521271
 H         0.098660         1.591777        -1.179708
 H        -0.515925        -0.175109        -0.958619
 H         2.677043         2.381550         0.437356
 H         2.075910         1.437561         1.724908
 H         4.490963         0.802840         1.252459
 H         3.239822        -2.000029         1.230652
