19
Iteration:  4708
 C         4.672720        -1.004029        -1.496545
 C         3.483366        -0.544386        -0.561869
 O         2.201642        -0.585996        -1.157706
 C         1.432546         0.076956        -0.117201
 C        -0.074782         0.177577        -0.240350
 C         2.297058         1.420274         0.061006
 C         3.643684         0.711225         0.219238
 C         3.196276        -0.570972         0.947549
 O         1.825876        -0.512706         1.059870
 H         5.508861        -0.989387        -0.774814
 H         4.400830        -1.994944        -2.041291
 H         4.840088        -0.262481        -2.240213
 H        -0.565670         0.640542         0.609364
 H        -0.375299         0.826212        -1.059872
 H        -0.618294        -0.729338        -0.322971
 H         2.191939         2.157204        -0.811204
 H         1.960898         1.998535         1.007452
 H         4.516379         1.251652         0.431488
 H         3.577646        -1.275515         1.706889
