19
Iteration:  2621charge 0 multiplicity 1
 C         4.674655        -1.108711        -1.343498
 C         3.495264        -0.479603        -0.578286
 O         2.223290        -0.122291        -1.308171
 C         1.504340         0.336452        -0.223080
 C         0.033707         0.328209        -0.327168
 C         2.425287         1.400078         0.512958
 C         3.582578         0.503039         0.472306
 C         3.066559        -0.895643         0.780296
 O         1.662643        -0.791672         0.751328
 H         5.418278        -0.394004        -1.687683
 H         5.086172        -1.880328        -0.719872
 H         4.522492        -1.455492        -2.338973
 H        -0.412615         0.912818         0.530006
 H        -0.417896         1.026091        -1.168348
 H        -0.575822        -0.565829        -0.414191
 H         2.443432         2.426306         0.085434
 H         2.001599         1.543188         1.527105
 H         4.516602         0.834908         0.788820
 H         3.535337        -1.579082         1.448550
