19
Iteration:  1570
 C         4.589556        -1.012059        -1.484566
 C         3.501651        -0.465602        -0.588142
 O         2.278733        -0.083572        -1.233320
 C         1.479762         0.247751        -0.042951
 C         0.243060         0.867658        -0.652629
 C         2.376424         1.204032         0.708310
 C         3.616780         0.326930         0.733134
 C         3.007075        -1.017720         0.714071
 O         1.541699        -0.946171         0.704302
 H         5.584770        -0.525696        -1.099523
 H         4.514630        -2.129226        -1.573210
 H         4.338554        -0.716811        -2.558553
 H        -0.526459         1.196924         0.085637
 H         0.576213         1.742529        -1.216045
 H        -0.265637         0.052018        -1.301737
 H         2.557826         2.131597         0.218771
 H         2.140636         1.432873         1.751703
 H         4.553935         0.763597         1.135996
 H         3.302495        -2.041813         1.049586
