19
Iteration:  3468charge 0 multiplicity 1
 C         4.648465        -1.104241        -1.442498
 C         3.457712        -0.512648        -0.591500
 O         2.226328        -0.461041        -1.245829
 C         1.495640         0.187555        -0.244587
 C        -0.049006         0.308333        -0.258389
 C         2.304806         1.437341         0.212382
 C         3.583161         0.667244         0.308449
 C         3.184880        -0.647552         0.854540
 O         1.772581        -0.653909         1.040005
 H         5.507011        -1.356821        -0.731459
 H         4.402242        -2.144919        -1.659313
 H         4.909245        -0.176999        -2.111991
 H        -0.397382         0.703298         0.699478
 H        -0.398792         0.990926        -1.048891
 H        -0.440558        -0.724524        -0.391113
 H         2.248343         2.330160        -0.321257
 H         2.059830         1.698498         1.259517
 H         4.582470         1.063162         0.576352
 H         3.719488        -1.329236         1.631034
