19
Iteration:  3131charge 0 multiplicity 1
 C         4.549868        -1.019692        -1.464051
 C         3.505326        -0.470054        -0.593532
 O         2.169401        -0.321027        -1.215220
 C         1.488075         0.189958        -0.142331
 C         0.005318         0.392193        -0.485126
 C         2.351698         1.432073         0.296357
 C         3.647185         0.618368         0.418844
 C         3.148556        -0.775800         0.876737
 O         1.754479        -0.817229         1.082403
 H         4.206400        -0.928785        -2.488533
 H         5.496847        -0.482518        -1.507057
 H         4.879136        -2.100683        -1.313930
 H        -0.503881         0.576780         0.470765
 H        -0.008805         0.953402        -1.458493
 H        -0.365622        -0.566769        -0.859057
 H         2.398153         2.241479        -0.501022
 H         2.019188         1.899697         1.348252
 H         4.669717         0.953684         0.663648
 H         3.753216        -1.492344         1.572658
