19
Iteration:  2423
 C         4.493451        -0.973410        -1.531204
 C         3.484754        -0.436739        -0.555099
 O         2.220744        -0.168795        -1.206980
 C         1.530612         0.242740        -0.117247
 C         0.188426         0.524112        -0.606552
 C         2.401039         1.392522         0.504011
 C         3.610714         0.436975         0.649449
 C         3.056405        -0.954547         0.790528
 O         1.671250        -0.878480         0.899543
 H         4.124150        -1.683213        -2.320027
 H         5.093268        -0.208766        -2.115417
 H         5.300074        -1.423746        -0.871904
 H        -0.537353         0.825173         0.181208
 H         0.149241         1.281342        -1.388841
 H        -0.350801        -0.356438        -1.070982
 H         2.447596         2.128907        -0.328321
 H         1.934237         1.724996         1.450571
 H         4.590866         0.630641         1.044537
 H         3.472554        -1.695794         1.413404
