19
Iteration:   214charge 0 multiplicity 1
 C         4.601322        -1.191447        -1.400046
 C         3.564096        -0.489526        -0.626326
 O         2.232627        -0.759091        -1.154736
 C         1.458066         0.036562        -0.116881
 C        -0.065487         0.081927        -0.223027
 C         2.155925         1.440006         0.095736
 C         3.546271         0.966531         0.089231
 C         3.323176        -0.344963         0.943162
 O         1.891918        -0.496736         1.067215
 H         4.616082        -2.315054        -1.144098
 H         4.243743        -0.951456        -2.457141
 H         5.583272        -0.642384        -1.225595
 H        -0.432032         0.473447         0.733418
 H        -0.509953         0.726718        -1.010075
 H        -0.619107        -0.871295        -0.334606
 H         1.900385         2.171350        -0.639983
 H         1.640496         1.835188         1.051484
 H         4.392469         1.640304         0.212436
 H         3.886214        -0.720103         1.750813
