19
Iteration:  4365
 C         4.493786        -0.997146        -1.450993
 C         3.464557        -0.491103        -0.589139
 O         2.179894        -0.555413        -1.092916
 C         1.493081         0.166893        -0.045301
 C         0.009990         0.185886        -0.377023
 C         2.269003         1.443005         0.015694
 C         3.573424         0.691905         0.271126
 C         3.295684        -0.590073         0.893224
 O         1.871124        -0.621323         1.128268
 H         4.658339        -2.071960        -1.175319
 H         4.076453        -0.909388        -2.436269
 H         5.400004        -0.207098        -1.297323
 H        -0.533650         0.566116         0.434518
 H        -0.345364         0.604364        -1.275827
 H        -0.226334        -0.807581        -0.546704
 H         2.235484         1.701237        -1.101404
 H         2.106468         2.192946         0.786323
 H         4.455018         1.255129         0.586861
 H         3.849726        -1.163342         1.538801
