19
Iteration:   585charge 0 multiplicity 1
 C         4.574791        -1.124674        -1.463999
 C         3.458055        -0.459726        -0.561980
 O         2.215088        -0.305360        -1.222450
 C         1.458976         0.190685        -0.034767
 C        -0.046625         0.078358        -0.348002
 C         2.276580         1.463845         0.097721
 C         3.649972         0.726268         0.446682
 C         3.271151        -0.627509         0.903327
 O         1.791853        -0.679616         0.992623
 H         4.833784        -0.370721        -2.161281
 H         5.274667        -1.687760        -0.872810
 H         4.081613        -1.890602        -1.946099
 H        -0.706040         0.298751         0.529219
 H        -0.350356         0.731626        -1.257366
 H        -0.130022        -0.983288        -0.634783
 H         2.320368         1.903055        -0.926664
 H         1.911578         2.150674         0.873813
 H         4.658543         1.176574         0.722402
 H         3.964811        -1.279907         1.566756
