19
Iteration:  1661charge 0 multiplicity 1
 C         4.569026        -1.048491        -1.372094
 C         3.512222        -0.392200        -0.574996
 O         2.284057         0.002698        -1.250370
 C         1.438541         0.185501        -0.034894
 C         0.146234         0.752736        -0.548765
 C         2.416306         1.290079         0.595610
 C         3.637523         0.325059         0.706185
 C         3.032429        -1.010954         0.641175
 O         1.604801        -0.989131         0.660550
 H         4.799165        -1.959631        -0.809889
 H         4.270090        -1.308441        -2.355793
 H         5.477807        -0.439202        -1.465586
 H        -0.510147         1.125548         0.239063
 H         0.397938         1.684078        -1.099817
 H        -0.409846         0.159888        -1.210485
 H         2.608213         2.201405        -0.126682
 H         1.973379         1.654678         1.549966
 H         4.571800         0.562876         1.149598
 H         3.251516        -1.875686         1.289558
