19
Iteration:  3245
 C         4.526708        -1.137523        -1.526400
 C         3.536872        -0.478515        -0.566596
 O         2.218878        -0.346248        -1.201682
 C         1.479037         0.176197        -0.125306
 C         0.076561         0.264547        -0.408897
 C         2.269608         1.462370         0.292655
 C         3.622140         0.689512         0.409234
 C         3.195882        -0.686732         0.900855
 O         1.782738        -0.711619         0.985104
 H         5.280955        -0.361981        -1.768933
 H         4.674872        -2.200084        -1.178707
 H         3.924815        -1.363471        -2.401389
 H        -0.515929         0.574962         0.483409
 H        -0.192236         0.878168        -1.254281
 H        -0.303993        -0.707489        -0.701072
 H         2.378003         2.261548        -0.462373
 H         1.866703         1.815193         1.226117
 H         4.532698         1.143739         0.728419
 H         3.536041        -1.342884         1.767611
