19
Iteration:   680
 C         4.559740        -1.019698        -1.458847
 C         3.448011        -0.512204        -0.564940
 O         2.240687        -0.446185        -1.243872
 C         1.463031         0.077321        -0.171609
 C        -0.023790         0.257930        -0.349638
 C         2.318695         1.478404         0.265736
 C         3.615499         0.681614         0.425385
 C         3.235804        -0.681734         0.876497
 O         1.798088        -0.673654         0.976499
 H         4.467982        -2.148500        -1.602549
 H         4.622231        -0.414532        -2.403816
 H         5.546277        -0.622759        -0.976949
 H        -0.410210         0.867838         0.489762
 H        -0.209871         0.848557        -1.238598
 H        -0.704070        -0.605728        -0.430960
 H         2.286889         2.035766        -0.619985
 H         1.856700         1.997770         1.154458
 H         4.618499         1.121725         0.573743
 H         3.587939        -1.300757         1.739450
