19
Iteration:   808
 C         4.600576        -1.003905        -1.408942
 C         3.468687        -0.443630        -0.594598
 O         2.233496        -0.298760        -1.258040
 C         1.440523         0.191624        -0.076329
 C         0.018719         0.289193        -0.366523
 C         2.395695         1.402431         0.206337
 C         3.611798         0.589564         0.484282
 C         3.096531        -0.850557         0.810058
 O         1.756119        -0.700182         0.983858
 H         4.817748        -0.222680        -2.127440
 H         5.377215        -1.153609        -0.731442
 H         4.304913        -1.881151        -2.043574
 H        -0.509872         0.643072         0.564369
 H        -0.042348         0.978511        -1.206179
 H        -0.368905        -0.753269        -0.701808
 H         2.588207         2.029778        -0.699472
 H         2.045711         2.120810         1.080759
 H         4.512876         0.996885         0.859363
 H         3.532013        -1.624043         1.420316
