19
Iteration:  3992
 C         4.535448        -1.207557        -1.373728
 C         3.517910        -0.448734        -0.638951
 O         2.214203        -0.342971        -1.235775
 C         1.453980         0.176863        -0.086265
 C        -0.034412         0.256115        -0.376733
 C         2.144859         1.479263         0.254984
 C         3.616920         0.768251         0.370737
 C         3.300589        -0.659930         0.859967
 O         1.878616        -0.764991         0.973844
 H         4.383465        -2.283249        -1.147236
 H         4.484340        -1.194636        -2.368963
 H         5.594880        -1.027746        -1.212080
 H        -0.429255         0.848179         0.522807
 H        -0.224422         0.932001        -1.232279
 H        -0.429083        -0.742278        -0.667689
 H         2.067841         2.204918        -0.595133
 H         1.812741         1.979465         1.198100
 H         4.603640         1.248213         0.685307
 H         3.913872        -1.358731         1.565154
