19
Iteration:  2237
 C         4.638377        -1.033137        -1.466895
 C         3.538252        -0.436585        -0.674218
 O         2.299735        -0.197325        -1.286553
 C         1.458416         0.293998        -0.183762
 C         0.036657         0.694573        -0.541494
 C         2.344253         1.262556         0.617420
 C         3.626045         0.394969         0.601459
 C         3.009073        -0.975576         0.826707
 O         1.653970        -0.816912         0.846488
 H         5.551400        -0.351548        -1.416643
 H         5.091230        -1.961906        -1.070302
 H         4.133569        -1.079993        -2.504951
 H        -0.362041         0.906641         0.400955
 H         0.260661         1.443863        -1.164353
 H        -0.516819        -0.085253        -1.075581
 H         2.458664         2.308024         0.246381
 H         1.950579         1.114621         1.670139
 H         4.611966         0.549235         1.091388
 H         3.427378        -1.777324         1.382272
