19
Iteration:  2734
 C         4.569257        -1.008276        -1.377980
 C         3.451340        -0.483364        -0.611510
 O         2.225067        -0.125978        -1.240997
 C         1.506283         0.193841        -0.082390
 C         0.040168         0.405390        -0.502929
 C         2.492303         1.462018         0.498652
 C         3.645654         0.531345         0.526091
 C         3.034914        -0.954289         0.743883
 O         1.651883        -0.825872         0.843814
 H         4.326919        -0.992103        -2.483080
 H         5.436596        -0.480807        -0.917226
 H         4.776942        -2.093603        -1.384407
 H        -0.446007         0.572036         0.431713
 H         0.165461         1.215859        -1.157378
 H        -0.347983        -0.370412        -1.181155
 H         2.698376         2.261020        -0.345663
 H         1.981805         1.837990         1.481670
 H         4.654471         0.579035         0.989304
 H         3.519658        -1.807902         1.270880
