19
Iteration:  1494
 C         4.651731        -1.104358        -1.307022
 C         3.422225        -0.507948        -0.632023
 O         2.347470         0.061027        -1.233178
 C         1.508694         0.397013        -0.036962
 C         0.008515         0.636475        -0.473085
 C         2.589412         1.324700         0.630595
 C         3.632687         0.280011         0.675622
 C         2.965412        -1.072446         0.607324
 O         1.499253        -0.865859         0.590641
 H         5.506029        -0.879149        -0.572818
 H         4.672161        -2.144956        -1.515062
 H         4.690390        -0.472968        -2.202433
 H        -0.728323         0.743683         0.349471
 H        -0.153675         1.513514        -1.067344
 H        -0.272621        -0.192947        -1.229007
 H         2.857638         2.147419        -0.122297
 H         2.183726         1.623336         1.630789
 H         4.575973         0.387542         1.139054
 H         3.452934        -2.035617         0.964029
