19
Iteration:  3548
 C         4.538081        -1.199129        -1.469759
 C         3.526301        -0.477847        -0.641083
 O         2.252345        -0.455549        -1.205161
 C         1.517242         0.151985        -0.129148
 C        -0.038328         0.312458        -0.381923
 C         2.257073         1.502036         0.323063
 C         3.559453         0.757552         0.350739
 C         3.266466        -0.639534         0.949990
 O         1.793758        -0.706674         0.949500
 H         5.565550        -0.912294        -1.513075
 H         4.434876        -2.248420        -1.489514
 H         4.323283        -1.153704        -2.457314
 H        -0.398902         0.920848         0.526520
 H        -0.176567         0.929185        -1.274736
 H        -0.472108        -0.703580        -0.609112
 H         2.113065         2.413250        -0.306203
 H         1.765154         1.588162         1.277180
 H         4.555801         1.106779         0.742648
 H         3.725111        -0.988156         1.848972
