19
Iteration:  3366
 C         4.511500        -1.184654        -1.487133
 C         3.490613        -0.479692        -0.572760
 O         2.218132        -0.326921        -1.211169
 C         1.471215         0.210140        -0.083308
 C         0.008210         0.162931        -0.369672
 C         2.311360         1.462778         0.221501
 C         3.654717         0.707802         0.392931
 C         3.212309        -0.648955         0.898094
 O         1.811382        -0.676560         0.992686
 H         5.177145        -1.796546        -0.871907
 H         3.755451        -1.603141        -2.188296
 H         4.984812        -0.400065        -2.116812
 H        -0.656128         0.475322         0.442804
 H        -0.262580         0.643560        -1.266386
 H        -0.381713        -0.783866        -0.584748
 H         2.420488         2.197491        -0.611563
 H         1.984133         1.922226         1.130047
 H         4.574539         1.246136         0.642799
 H         3.701635        -1.357642         1.605829
