19
Iteration:  2862
 C         4.553676        -0.980199        -1.471993
 C         3.484502        -0.571886        -0.548603
 O         2.286919        -0.287232        -1.315297
 C         1.486482         0.284789        -0.170811
 C         0.023060         0.478785        -0.425468
 C         2.386429         1.398976         0.452363
 C         3.591189         0.528911         0.577069
 C         3.126266        -0.878733         0.861263
 O         1.695204        -0.817171         0.861666
 H         5.271495        -0.180732        -1.692868
 H         5.250871        -1.848663        -1.437421
 H         4.142834        -1.251739        -2.415249
 H        -0.740960         0.807483         0.336443
 H        -0.060540         1.422238        -1.038060
 H        -0.310564        -0.512737        -0.892014
 H         2.507471         2.223730        -0.213569
 H         2.045358         1.792682         1.375072
 H         4.577910         0.815140         0.972614
 H         3.465299        -1.482929         1.652402
