19
Iteration:  4055charge 0 multiplicity 1
 C         4.609986        -1.008629        -1.414615
 C         3.435302        -0.488246        -0.654970
 O         2.092111        -0.431010        -1.193723
 C         1.438276         0.178537         0.018053
 C        -0.006503         0.190132        -0.408592
 C         2.387642         1.432793         0.066984
 C         3.678008         0.676481         0.384615
 C         3.241725        -0.648160         0.865058
 O         1.754141        -0.694544         1.102636
 H         4.153327        -1.404120        -2.383180
 H         5.497301        -0.064949        -1.672317
 H         5.166000        -1.722240        -0.711763
 H        -0.580603         0.572655         0.450799
 H        -0.138573         0.792939        -1.274631
 H        -0.384936        -0.829343        -0.527430
 H         2.412690         1.768108        -0.923312
 H         2.094625         2.292611         0.722831
 H         4.594261         1.277481         0.728666
 H         3.908970        -1.424055         1.455318
