19
Iteration:  1480charge 0 multiplicity 1
 C         4.668822        -1.054220        -1.342798
 C         3.500736        -0.539222        -0.598358
 O         2.302986         0.058990        -1.362670
 C         1.497568         0.353689        -0.159928
 C         0.086517         0.678905        -0.466243
 C         2.434728         1.269057         0.689593
 C         3.693374         0.294774         0.646129
 C         2.894812        -1.113774         0.709694
 O         1.547245        -0.816268         0.677184
 H         5.566533        -1.116940        -0.693902
 H         4.372402        -2.084039        -1.834751
 H         5.083829        -0.475167        -2.212125
 H        -0.503383         0.709586         0.482448
 H         0.085196         1.648407        -1.035697
 H        -0.277609        -0.205565        -1.023676
 H         2.596000         2.174664         0.259219
 H         2.106945         1.519996         1.677857
 H         4.700137         0.530777         1.017077
 H         3.023727        -2.001251         1.257145
