19
Iteration:  3358
 C         4.432293        -1.148756        -1.427228
 C         3.511698        -0.479739        -0.611506
 O         2.223047        -0.322887        -1.204593
 C         1.431915         0.181584        -0.050738
 C        -0.002764         0.166443        -0.357889
 C         2.295166         1.446229         0.190423
 C         3.654810         0.735627         0.413691
 C         3.237384        -0.682030         0.860633
 O         1.840138        -0.694253         0.973342
 H         5.249829        -1.687346        -0.917278
 H         3.961494        -1.893021        -2.146199
 H         5.099589        -0.444352        -2.095920
 H        -0.484525         0.763663         0.361768
 H        -0.128230         0.916842        -1.185587
 H        -0.327506        -0.824758        -0.615716
 H         2.382335         2.023368        -0.674086
 H         2.068478         2.053485         1.026750
 H         4.470191         1.251003         0.864069
 H         3.656383        -1.267623         1.555333
