19
Iteration:  1927charge 0 multiplicity 1
 C         4.669711        -1.038551        -1.444353
 C         3.481860        -0.579789        -0.560797
 O         2.411194        -0.070140        -1.308791
 C         1.464647         0.331607        -0.234970
 C         0.003049         0.627785        -0.378708
 C         2.362392         1.323515         0.620503
 C         3.644346         0.346398         0.605870
 C         2.971112        -1.018894         0.748157
 O         1.593177        -0.786261         0.689213
 H         4.497696        -1.724670        -2.244098
 H         5.247448        -0.154892        -1.900904
 H         5.355973        -1.605507        -0.829803
 H        -0.265365         0.724477         0.626186
 H        -0.133273         1.557735        -0.896596
 H        -0.504295        -0.130813        -0.844249
 H         2.495258         2.319512         0.061700
 H         2.043277         1.499213         1.714087
 H         4.552690         0.469934         1.178016
 H         3.155877        -1.906816         1.441428
