19
Iteration:  1792charge 0 multiplicity 1
 C         4.673792        -1.068368        -1.425911
 C         3.502995        -0.509339        -0.621026
 O         2.270081        -0.106198        -1.312562
 C         1.481504         0.297012        -0.078969
 C         0.105298         0.748101        -0.480927
 C         2.372394         1.326033         0.710319
 C         3.637419         0.472593         0.663772
 C         3.012209        -1.035896         0.737508
 O         1.614816        -0.938780         0.625440
 H         4.179825        -1.674963        -2.277068
 H         5.201812        -0.189100        -1.911080
 H         5.281425        -1.793131        -0.821964
 H        -0.448003         1.068158         0.426004
 H         0.107315         1.529681        -1.233539
 H        -0.433644        -0.121534        -0.925405
 H         2.353226         2.257073         0.098203
 H         1.874964         1.365315         1.658083
 H         4.636957         0.557787         1.143211
 H         3.341787        -1.794578         1.445232
