19
Iteration:  3115
 C         4.526477        -1.063854        -1.470818
 C         3.441291        -0.508988        -0.627387
 O         2.226450        -0.322212        -1.204091
 C         1.426859         0.207916         0.051330
 C         0.022663         0.328100        -0.520887
 C         2.335804         1.403549         0.361491
 C         3.606091         0.643536         0.497874
 C         3.248856        -0.799181         0.820659
 O         1.796018        -0.708309         0.960192
 H         4.289270        -1.295725        -2.572766
 H         5.364026        -0.325481        -1.656802
 H         4.741983        -2.046596        -1.129419
 H        -0.831750         0.697946         0.083542
 H         0.223406         1.149231        -1.265070
 H        -0.446388        -0.561012        -1.008504
 H         2.333461         2.006575        -0.524377
 H         2.098974         1.973074         1.161567
 H         4.564226         1.109126         0.751074
 H         3.690663        -1.504805         1.404082
