19
Iteration:  4679
 C         4.558196        -0.972556        -1.519021
 C         3.446027        -0.500539        -0.554663
 O         2.207980        -0.612653        -1.106590
 C         1.489679         0.138271        -0.118854
 C         0.010624         0.226769        -0.297043
 C         2.276818         1.481754        -0.063807
 C         3.544614         0.706714         0.291664
 C         3.230185        -0.541795         1.013852
 O         1.865753        -0.675831         1.127992
 H         5.258928        -1.694689        -1.013979
 H         4.170765        -1.673582        -2.264470
 H         5.110552        -0.114100        -1.973822
 H        -0.585377         0.546800         0.580215
 H        -0.173506         0.909390        -1.146775
 H        -0.356488        -0.843645        -0.518917
 H         2.326741         1.966594        -0.960103
 H         1.901106         2.204695         0.560642
 H         4.472599         1.233616         0.376573
 H         3.707218        -1.140995         1.684137
