19
Iteration:  1086
 C         4.574405        -1.060802        -1.444322
 C         3.490572        -0.497679        -0.571496
 O         2.273644        -0.196162        -1.273848
 C         1.516922         0.275042        -0.171348
 C         0.128606         0.540077        -0.454679
 C         2.314049         1.298371         0.573038
 C         3.582270         0.555475         0.558348
 C         3.087202        -0.891849         0.811641
 O         1.648673        -0.846458         0.721746
 H         4.275858        -1.699810        -2.240090
 H         5.341000        -0.295593        -1.819438
 H         5.239012        -1.619974        -0.804836
 H        -0.221615         0.858372         0.556874
 H         0.153251         1.383949        -1.123556
 H        -0.555992        -0.269721        -0.840227
 H         2.307419         2.349863         0.006738
 H         2.021275         1.386850         1.729550
 H         4.485898         0.954630         1.027705
 H         3.546871        -1.744207         1.391657
