19
Iteration:  2827
 C         4.623058        -1.002586        -1.510494
 C         3.471927        -0.491945        -0.627070
 O         2.215478        -0.194950        -1.227267
 C         1.505164         0.323020        -0.076048
 C         0.015338         0.450647        -0.586243
 C         2.463306         1.411677         0.481059
 C         3.611920         0.493803         0.551099
 C         3.059849        -0.961303         0.799616
 O         1.664022        -0.823458         0.993166
 H         4.769957        -0.214786        -2.185561
 H         5.463209        -1.263626        -0.866656
 H         4.159200        -1.810964        -2.102044
 H        -0.712825         0.600531         0.193793
 H         0.008428         1.039600        -1.522622
 H        -0.092004        -0.524450        -1.002277
 H         2.618285         2.137377        -0.243493
 H         2.080423         1.773843         1.375389
 H         4.631072         0.804874         0.978293
 H         3.673215        -1.678122         1.420361
