19
Iteration:  3253
 C         4.461767        -1.122567        -1.504836
 C         3.498163        -0.496983        -0.555131
 O         2.262833        -0.360155        -1.256934
 C         1.506734         0.178127        -0.077172
 C         0.012438         0.282337        -0.388096
 C         2.326983         1.477159         0.259736
 C         3.595332         0.736530         0.430837
 C         3.203582        -0.721422         0.902500
 O         1.756138        -0.739552         1.000231
 H         5.350664        -0.515008        -1.690841
 H         5.023870        -2.083137        -1.273765
 H         3.964334        -1.171777        -2.442585
 H        -0.537532         0.457394         0.549893
 H         0.100910         0.831630        -1.331908
 H        -0.273134        -0.791953        -0.716932
 H         2.334412         2.157648        -0.657800
 H         2.010161         2.119695         1.206090
 H         4.470474         1.209584         0.779902
 H         3.675449        -1.368532         1.553875
