19
Iteration:  4976
 C         4.567764        -1.130105        -1.408217
 C         3.483181        -0.447813        -0.615568
 O         2.216370        -0.546619        -1.142019
 C         1.488669         0.051981        -0.056794
 C         0.055329         0.209703        -0.280335
 C         2.211117         1.458320         0.011641
 C         3.509059         0.818993         0.261891
 C         3.240253        -0.513705         0.930352
 O         1.872215        -0.665532         1.047763
 H         5.526175        -0.593956        -1.184204
 H         4.667254        -2.218725        -1.211324
 H         4.217376        -0.845660        -2.497104
 H        -0.495385         0.792837         0.536917
 H        -0.217245         0.655921        -1.325452
 H        -0.534524        -0.745320        -0.323831
 H         2.233137         1.894518        -0.962372
 H         1.869155         2.069058         0.789487
 H         4.490397         1.276787         0.612966
 H         3.849629        -1.015762         1.641831
