19
Iteration:   246charge 0 multiplicity 1
 C         4.639947        -1.106092        -1.285388
 C         3.455086        -0.492561        -0.626357
 O         2.108541        -0.502709        -1.225219
 C         1.459735         0.125136        -0.067901
 C        -0.093668        -0.079588        -0.137398
 C         2.318536         1.554250        -0.131091
 C         3.579632         0.814070         0.157924
 C         3.273026        -0.504531         0.870184
 O         1.892785        -0.552104         1.137816
 H         5.267614        -1.791981        -0.635378
 H         4.394155        -1.669584        -2.237180
 H         5.293386        -0.246158        -1.623565
 H        -0.488911         0.381512         0.772610
 H        -0.583704         0.432368        -0.989438
 H        -0.192545        -1.162817        -0.003115
 H         2.273573         1.710917        -1.193535
 H         1.785895         2.301727         0.555197
 H         4.428065         1.422194         0.468782
 H         3.896921        -0.977178         1.604433
