19
Iteration:   852charge 0 multiplicity 1
 C         4.550175        -0.992873        -1.488261
 C         3.529521        -0.483668        -0.559598
 O         2.252494        -0.342324        -1.238506
 C         1.500551         0.202514        -0.165662
 C         0.023411         0.352757        -0.466161
 C         2.338539         1.365625         0.410325
 C         3.681968         0.621384         0.420874
 C         3.124672        -0.808954         0.848781
 O         1.706021        -0.705604         0.956933
 H         4.033619        -1.483609        -2.290053
 H         5.325221        -0.364477        -1.727252
 H         4.944921        -1.895075        -0.964952
 H        -0.442034         0.699145         0.491511
 H        -0.190719         1.038721        -1.285876
 H        -0.700248        -0.516206        -0.714295
 H         2.205001         2.254383        -0.230311
 H         1.974479         1.553369         1.510355
 H         4.582775         1.010991         0.785526
 H         3.632263        -1.363262         1.600876
