19
Iteration:  1746charge 0 multiplicity 1
 C         4.664895        -1.008817        -1.357509
 C         3.559975        -0.515507        -0.564298
 O         2.255656         0.035503        -1.297204
 C         1.456384         0.317814        -0.057847
 C         0.072337         0.678425        -0.430840
 C         2.468275         1.311367         0.556808
 C         3.576369         0.310959         0.647018
 C         2.973398        -1.082372         0.711997
 O         1.584964        -0.921236         0.628701
 H         4.621502        -2.189197        -1.438146
 H         4.559783        -0.558712        -2.357610
 H         5.651638        -0.700652        -0.854723
 H        -0.561201         0.879239         0.472706
 H         0.203344         1.663121        -1.031656
 H        -0.313420        -0.084067        -1.107966
 H         2.679131         1.959929        -0.213462
 H         2.274107         1.787548         1.465239
 H         4.435889         0.556562         1.227523
 H         3.414243        -2.035901         1.137516
