19
Iteration:  1636charge 0 multiplicity 1
 C         4.666316        -1.031663        -1.409733
 C         3.529161        -0.553386        -0.532858
 O         2.390992        -0.032702        -1.362740
 C         1.538023         0.378453        -0.246083
 C         0.096579         0.696441        -0.404560
 C         2.416004         1.322795         0.656499
 C         3.539535         0.313229         0.692598
 C         2.927629        -1.051637         0.719633
 O         1.541516        -0.890843         0.669088
 H         5.397127        -1.819730        -0.920211
 H         4.166108        -1.554273        -2.271786
 H         5.232007        -0.158718        -1.875493
 H        -0.240483         0.995520         0.610155
 H        -0.196238         1.557494        -1.074287
 H        -0.466807        -0.180085        -0.797486
 H         2.724626         2.265002         0.355506
 H         1.919578         1.327091         1.611278
 H         4.468518         0.650668         1.209551
 H         3.197734        -1.948031         1.206866
