19
Iteration:   383
 C         4.621188        -1.145929        -1.446664
 C         3.549783        -0.534388        -0.603229
 O         2.189309        -0.642910        -1.189003
 C         1.422574         0.154530        -0.215600
 C        -0.059098         0.016306        -0.209728
 C         2.288670         1.565826         0.118310
 C         3.575424         0.840635         0.265176
 C         3.268885        -0.494568         0.886014
 O         1.792791        -0.517748         1.064066
 H         4.389273        -0.937742        -2.498506
 H         5.442496        -0.421827        -1.232601
 H         5.059604        -2.144343        -1.166652
 H        -0.392219         0.317847         0.767733
 H        -0.801101         0.603726        -0.824709
 H        -0.397155        -0.993957        -0.247707
 H         2.273783         2.436116        -0.586555
 H         1.858560         1.824909         1.021515
 H         4.545329         1.416218         0.412978
 H         3.982439        -1.112852         1.498640
