19
Iteration:   118
 C         4.598357        -1.136165        -1.358982
 C         3.514974        -0.438678        -0.646064
 O         2.233077        -0.602380        -1.170886
 C         1.439904         0.027345        -0.071902
 C        -0.013246        -0.040620        -0.049598
 C         2.131235         1.471360        -0.123734
 C         3.530449         0.924025         0.123097
 C         3.284900        -0.400664         0.866107
 O         1.919574        -0.573619         1.106055
 H         4.355522        -0.852287        -2.424615
 H         5.570537        -0.696328        -1.135560
 H         4.555100        -2.218215        -1.252567
 H        -0.241279         0.730233         0.714169
 H        -0.457193         0.308648        -1.009330
 H        -0.402592        -1.031369         0.259258
 H         2.024302         2.015879        -1.057424
 H         1.610465         2.131352         0.649155
 H         4.453502         1.363093         0.444330
 H         3.940495        -0.569342         1.662236
