19
Iteration:  1009
 C         4.572410        -1.040250        -1.469280
 C         3.504944        -0.525238        -0.642614
 O         2.287755        -0.247550        -1.218896
 C         1.474604         0.203098        -0.137456
 C         0.059638         0.552052        -0.533622
 C         2.311401         1.277142         0.539057
 C         3.636435         0.541630         0.498704
 C         3.113747        -0.819945         0.856161
 O         1.670051        -0.784326         0.849628
 H         5.020395        -0.213495        -1.996888
 H         5.421692        -1.316479        -0.837408
 H         4.153589        -1.710563        -2.159330
 H        -0.507492         0.854302         0.356703
 H         0.220560         1.278873        -1.332906
 H        -0.440867        -0.329329        -0.929999
 H         2.365689         2.337533         0.077124
 H         2.037827         1.309062         1.678083
 H         4.570002         0.851394         0.867058
 H         3.436673        -1.568257         1.526562
