19
Iteration:  1960charge 0 multiplicity 1
 C         4.530073        -0.993813        -1.417771
 C         3.428053        -0.460047        -0.610781
 O         2.280517        -0.038421        -1.227091
 C         1.467481         0.380765        -0.043476
 C         0.118287         0.565159        -0.604519
 C         2.488735         1.334446         0.649864
 C         3.707671         0.314927         0.661350
 C         2.987248        -1.064315         0.724103
 O         1.592011        -0.858974         0.721770
 H         4.365516        -2.045611        -1.625099
 H         4.704899        -0.454602        -2.444851
 H         5.446401        -0.834416        -0.844603
 H        -0.647558         0.682855         0.084410
 H         0.155865         1.357643        -1.356429
 H        -0.056762        -0.296001        -1.125840
 H         2.893867         1.990544        -0.165760
 H         2.264285         1.882591         1.635850
 H         4.698714         0.449420         1.125795
 H         3.158630        -2.047018         1.172091
