19
Iteration:   492
 C         4.578529        -1.065824        -1.440522
 C         3.500441        -0.457121        -0.581036
 O         2.150616        -0.437097        -1.169036
 C         1.494948         0.232919        -0.026105
 C        -0.096789         0.065743        -0.277734
 C         2.319418         1.460704         0.004593
 C         3.542913         0.726291         0.341366
 C         3.269704        -0.632329         0.898509
 O         1.838638        -0.646827         0.989513
 H         5.103874        -1.720866        -0.709848
 H         4.178146        -1.539021        -2.391451
 H         5.441461        -0.312365        -1.657087
 H        -0.454160         0.541407         0.590318
 H        -0.199213         0.431026        -1.280714
 H        -0.214550        -0.979321        -0.154904
 H         2.436000         1.894321        -0.994781
 H         1.969631         2.191599         0.684508
 H         4.429790         1.263462         0.713281
 H         3.850720        -1.141871         1.724243
