19
Iteration:  1300charge 0 multiplicity 1
 C         4.625662        -0.963064        -1.530315
 C         3.499266        -0.481716        -0.620237
 O         2.317530        -0.080871        -1.259987
 C         1.513899         0.411116        -0.137117
 C         0.126010         0.601151        -0.583098
 C         2.454299         1.292975         0.661099
 C         3.628090         0.277922         0.629345
 C         2.923602        -1.087879         0.767956
 O         1.529912        -0.822364         0.843016
 H         4.430674        -0.680434        -2.638520
 H         5.515344        -0.371886        -1.278568
 H         4.789411        -2.007893        -1.175260
 H        -0.511671         0.504639         0.293186
 H        -0.025338         1.473088        -1.120066
 H        -0.007107        -0.295800        -1.247258
 H         2.691083         2.178320         0.089092
 H         2.192775         1.466263         1.674687
 H         4.547004         0.711458         1.100042
 H         3.244143        -1.882475         1.395137
