19
Iteration:  1801
 C         4.580695        -1.026385        -1.470512
 C         3.510166        -0.503759        -0.584207
 O         2.357195        -0.056494        -1.281322
 C         1.493457         0.264871        -0.074106
 C         0.070532         0.677340        -0.492230
 C         2.437350         1.335721         0.650847
 C         3.592923         0.403841         0.704403
 C         3.011659        -0.975391         0.711826
 O         1.553315        -0.973532         0.674710
 H         4.176575        -1.584052        -2.424657
 H         5.408365        -0.331432        -1.729205
 H         5.191580        -1.771446        -0.833622
 H        -0.520543         1.174205         0.337854
 H         0.292682         1.534347        -1.246297
 H        -0.465502        -0.163766        -0.989060
 H         2.458097         2.190425         0.036494
 H         2.069912         1.707430         1.576658
 H         4.612112         0.667843         1.015778
 H         3.524293        -1.813918         1.279766
