19
Iteration:  3648charge 0 multiplicity 1
 C         4.457267        -1.136775        -1.477332
 C         3.532469        -0.491230        -0.549350
 O         2.198046        -0.404434        -1.184649
 C         1.471033         0.106301        -0.076750
 C         0.040023         0.305964        -0.417732
 C         2.243911         1.451013         0.139742
 C         3.601906         0.791791         0.409288
 C         3.262657        -0.613631         0.929779
 O         1.814521        -0.760873         1.031720
 H         5.081359        -1.883034        -1.031986
 H         4.037919        -1.542961        -2.446440
 H         5.244791        -0.523364        -1.771255
 H        -0.584703         0.526781         0.528687
 H         0.017201         1.007465        -1.310104
 H        -0.339141        -0.745701        -0.650061
 H         2.340179         2.081376        -0.826960
 H         1.908268         2.036778         0.990058
 H         4.552352         1.227085         0.614142
 H         3.912203        -1.253879         1.545679
