19
Iteration:  4439
 C         4.620871        -1.227213        -1.304133
 C         3.440987        -0.408897        -0.694289
 O         2.138551        -0.452159        -1.196812
 C         1.425773         0.159398         0.024972
 C        -0.054130         0.052029        -0.281446
 C         2.230828         1.518646         0.109186
 C         3.558421         0.779419         0.194504
 C         3.303403        -0.486175         0.826176
 O         1.971973        -0.679777         1.060460
 H         4.059414        -1.782526        -1.999107
 H         5.363260        -0.680082        -1.810593
 H         4.958216        -1.677992        -0.468536
 H        -0.643859         0.603348         0.519314
 H        -0.327976         0.557126        -1.229037
 H        -0.490985        -0.889646        -0.472251
 H         2.299401         2.048664        -0.898346
 H         1.856347         2.239070         0.908069
 H         4.511881         1.285792         0.370574
 H         4.020226        -0.990383         1.443687
