19
Iteration:  1206
 C         4.623911        -1.061714        -1.332619
 C         3.495710        -0.418856        -0.627754
 O         2.189945        -0.065003        -1.241666
 C         1.503876         0.250255        -0.115342
 C         0.100412         0.689872        -0.509069
 C         2.363776         1.295163         0.608282
 C         3.697774         0.535059         0.606870
 C         3.044590        -0.991695         0.670248
 O         1.632202        -1.028131         0.701586
 H         5.525684        -0.640521        -1.031862
 H         4.679645        -2.159968        -1.025381
 H         4.457403        -1.126634        -2.378830
 H        -0.429315         1.120117         0.378493
 H         0.319314         1.478588        -1.240794
 H        -0.606526        -0.103025        -0.950062
 H         2.238034         2.265495         0.012843
 H         2.101684         1.333644         1.719332
 H         4.691416         0.737169         1.051816
 H         3.584836        -1.745431         1.164718
