19
Iteration:  3547
 C         4.529392        -1.201654        -1.473475
 C         3.518133        -0.475137        -0.633975
 O         2.263227        -0.455954        -1.206008
 C         1.523164         0.155973        -0.124578
 C        -0.041335         0.304492        -0.380653
 C         2.254150         1.504325         0.321545
 C         3.563988         0.750580         0.352139
 C         3.268540        -0.633987         0.953228
 O         1.791337        -0.704190         0.948012
 H         5.594101        -0.936650        -1.527442
 H         4.459557        -2.238822        -1.465236
 H         4.282600        -1.141338        -2.503099
 H        -0.367874         0.929029         0.464393
 H        -0.190181         0.925324        -1.244675
 H        -0.445916        -0.675105        -0.632548
 H         2.119521         2.376286        -0.246112
 H         1.744690         1.574249         1.264751
 H         4.527953         1.126630         0.713825
 H         3.698708        -0.985646         1.811400
