19
Iteration:  3393charge 0 multiplicity 1
 C         4.555559        -1.148390        -1.543495
 C         3.472870        -0.514651        -0.609248
 O         2.202118        -0.417163        -1.179070
 C         1.489321         0.261885        -0.127828
 C         0.025009         0.115091        -0.418797
 C         2.334037         1.481595         0.303174
 C         3.667927         0.674525         0.317772
 C         3.162747        -0.645443         0.863203
 O         1.780380        -0.574556         1.059920
 H         5.010324        -1.978415        -0.938407
 H         3.988717        -1.574797        -2.382247
 H         5.136019        -0.231656        -1.831935
 H        -0.521683         0.306492         0.542588
 H        -0.270401         0.694699        -1.362283
 H        -0.461594        -0.944506        -0.508979
 H         2.413816         2.411315        -0.259834
 H         2.064938         1.759729         1.379290
 H         4.508919         1.211903         0.795908
 H         3.608461        -1.229619         1.731336
