19
Iteration:  1418
 C         4.547610        -0.911947        -1.535038
 C         3.446435        -0.547894        -0.583146
 O         2.346232        -0.005359        -1.243127
 C         1.527987         0.322790        -0.098714
 C         0.203381         0.681050        -0.618775
 C         2.445972         1.304891         0.604971
 C         3.667194         0.291985         0.791565
 C         2.959089        -1.043863         0.728474
 O         1.500793        -0.946869         0.789980
 H         4.697927        -2.003009        -1.350666
 H         4.239764        -0.882179        -2.506580
 H         5.387843        -0.298553        -1.298355
 H        -0.552266         1.124131         0.047208
 H         0.320227         1.369597        -1.424013
 H        -0.247004        -0.270529        -1.051072
 H         2.682005         2.192729        -0.199940
 H         2.101130         1.589417         1.662159
 H         4.600902         0.390674         1.316813
 H         3.322577        -1.893466         1.259215
