19
Iteration:  4376
 C         4.528439        -1.008257        -1.516076
 C         3.470356        -0.530272        -0.549981
 O         2.149904        -0.575406        -1.089286
 C         1.461119         0.156728        -0.083658
 C         0.011030         0.161650        -0.334419
 C         2.321022         1.425836        -0.008831
 C         3.620061         0.830496         0.323869
 C         3.224382        -0.590582         0.933316
 O         1.832910        -0.641009         1.115572
 H         4.788483        -2.095466        -1.543352
 H         4.237814        -0.762386        -2.534940
 H         5.635787        -0.518598        -1.407606
 H        -0.527682         0.553140         0.485159
 H        -0.155515         0.753100        -1.210722
 H        -0.253630        -0.845356        -0.376253
 H         2.341088         1.957949        -1.019717
 H         1.802093         2.170151         0.585660
 H         4.609652         1.254601         0.505816
 H         3.841166        -1.108615         1.617827
