19
Iteration:  4661
 C         4.534420        -1.105457        -1.481278
 C         3.517881        -0.440052        -0.541751
 O         2.131855        -0.558415        -1.115376
 C         1.431428         0.074364        -0.044750
 C         0.003143         0.126455        -0.387669
 C         2.281017         1.431200         0.056144
 C         3.660222         0.826707         0.282315
 C         3.305671        -0.554567         0.896220
 O         1.826646        -0.614976         1.101130
 H         5.122552        -1.802528        -0.912771
 H         3.915179        -1.376589        -2.299997
 H         5.222022        -0.267304        -1.820575
 H        -0.570295         0.568723         0.430708
 H        -0.147417         0.887193        -1.152932
 H        -0.579954        -0.768863        -0.612892
 H         2.185177         1.902296        -1.064124
 H         1.888028         2.175517         0.828194
 H         4.616286         1.398616         0.471271
 H         3.893303        -1.005352         1.699508
