19
Iteration:  3753charge 0 multiplicity 1
 C         4.655168        -1.045668        -1.396540
 C         3.491731        -0.461006        -0.612603
 O         2.182328        -0.457537        -1.204681
 C         1.444661         0.154666        -0.071289
 C         0.016668         0.365964        -0.343043
 C         2.228290         1.420229         0.129825
 C         3.605651         0.690944         0.311819
 C         3.222597        -0.726149         0.885606
 O         1.812153        -0.749019         1.030453
 H         5.036220        -1.899321        -0.778065
 H         4.254547        -1.605898        -2.235075
 H         5.250327        -0.140123        -1.753528
 H        -0.371176         0.872983         0.536042
 H        -0.201999         1.086729        -1.068788
 H        -0.583122        -0.494949        -0.546385
 H         2.139776         2.150672        -0.675783
 H         1.842722         1.935177         1.045810
 H         4.552342         1.179436         0.574086
 H         3.876539        -1.327158         1.523470
