19
Iteration:   304
 C         4.536373        -1.208689        -1.506334
 C         3.537060        -0.478507        -0.589601
 O         2.306557        -0.648466        -1.125905
 C         1.464509         0.086160        -0.088225
 C        -0.037040         0.116370        -0.325251
 C         2.110169         1.410280         0.141183
 C         3.568949         0.868797         0.136222
 C         3.300988        -0.300507         0.967192
 O         1.880924        -0.576143         1.116952
 H         5.568906        -0.669526        -1.654339
 H         4.849359        -2.248184        -1.167254
 H         4.123693        -1.290626        -2.550965
 H        -0.474449         0.820977         0.433699
 H        -0.175636         0.417351        -1.344214
 H        -0.621594        -0.818671        -0.306711
 H         1.745917         2.298069        -0.414273
 H         1.679810         1.611589         1.125477
 H         4.379253         1.565556         0.106945
 H         3.847029        -0.773534         1.778859
