19
Iteration:  2023charge 0 multiplicity 1
 C         4.574020        -1.065179        -1.425676
 C         3.512919        -0.526915        -0.550951
 O         2.325873        -0.109657        -1.308037
 C         1.529573         0.297760        -0.157568
 C         0.089810         0.716507        -0.489512
 C         2.395588         1.346669         0.663789
 C         3.649443         0.438373         0.667661
 C         2.985186        -0.996393         0.742908
 O         1.578643        -0.949216         0.667525
 H         4.594618        -2.116968        -1.637925
 H         4.431654        -0.543470        -2.480276
 H         5.571779        -0.902366        -1.015826
 H        -0.266766         1.110659         0.484111
 H         0.060739         1.594472        -1.218202
 H        -0.496947        -0.140067        -0.946925
 H         2.710187         2.329259         0.230278
 H         1.980649         1.445885         1.649889
 H         4.496219         0.816441         1.256159
 H         3.286844        -1.938425         1.185350
