19
Iteration:  2807
 C         4.529798        -1.049193        -1.446652
 C         3.467668        -0.502679        -0.597233
 O         2.264703        -0.132614        -1.234423
 C         1.484375         0.221643        -0.076042
 C         0.033516         0.436355        -0.508333
 C         2.356657         1.385529         0.462805
 C         3.667457         0.510956         0.596295
 C         3.121385        -0.890789         0.828367
 O         1.684394        -0.818605         0.794066
 H         4.474406        -0.600758        -2.436048
 H         5.460078        -0.866000        -0.824483
 H         4.441552        -2.087853        -1.734086
 H        -0.468391         0.883523         0.400142
 H         0.273481         1.225768        -1.310810
 H        -0.474536        -0.472351        -0.921834
 H         2.485015         2.104270        -0.312341
 H         2.157662         1.859151         1.388886
 H         4.724469         0.850343         0.938604
 H         3.489413        -1.769784         1.422732
