19
Iteration:  4914charge 0 multiplicity 1
 C         4.476926        -1.251298        -1.374819
 C         3.499657        -0.398659        -0.638399
 O         2.169496        -0.420476        -1.215605
 C         1.466328         0.165986        -0.127466
 C        -0.038454        -0.029737        -0.327767
 C         2.294016         1.450534         0.150711
 C         3.603843         0.863625         0.253191
 C         3.285291        -0.474725         0.946384
 O         1.882352        -0.600321         1.076632
 H         5.201948        -1.716084        -0.702970
 H         4.126988        -2.085421        -2.037000
 H         5.004734        -0.674598        -2.106983
 H        -0.607484         0.382608         0.513691
 H        -0.334243         0.380636        -1.303423
 H        -0.000011        -1.132165        -0.217214
 H         2.088341         2.149576        -0.734206
 H         1.944569         2.136079         0.981487
 H         4.656811         1.313904         0.178918
 H         3.723352        -1.072715         1.751305
