19
Iteration:  1045
 C         4.592463        -1.097334        -1.418303
 C         3.484848        -0.369415        -0.619115
 O         2.286349        -0.065279        -1.233154
 C         1.460475         0.254244        -0.083644
 C        -0.007091         0.340437        -0.423295
 C         2.503036         1.430885         0.421395
 C         3.616740         0.399238         0.696801
 C         3.037145        -0.922293         0.711833
 O         1.652172        -0.777414         0.763742
 H         4.486005        -0.825028        -2.467935
 H         5.622254        -0.718192        -1.004220
 H         4.794313        -2.192910        -1.296563
 H        -0.579312         0.770370         0.391866
 H        -0.245556         1.001197        -1.210639
 H        -0.317966        -0.689683        -0.697160
 H         2.794512         2.029375        -0.456095
 H         2.006327         2.043122         1.110954
 H         4.507511         0.796262         1.235330
 H         3.344067        -1.904544         1.151077
