19
Iteration:  2771
 C         4.648322        -1.197828        -1.437802
 C         3.513366        -0.487686        -0.625248
 O         2.322411        -0.191080        -1.312149
 C         1.477520         0.198340        -0.221016
 C        -0.016355         0.530670        -0.332147
 C         2.276610         1.390867         0.553050
 C         3.593613         0.562707         0.629855
 C         3.129127        -0.862864         0.782995
 O         1.710750        -0.798569         0.718502
 H         4.572297        -0.882304        -2.457079
 H         5.583500        -0.717364        -1.305758
 H         4.735687        -2.297974        -1.147460
 H        -0.436157         1.041859         0.546833
 H        -0.085692         1.380715        -1.055279
 H        -0.762063        -0.189542        -0.599965
 H         2.315562         2.277135        -0.012692
 H         1.707221         1.601117         1.432503
 H         4.470394         0.894597         1.176859
 H         3.588628        -1.638651         1.387872
