19
Iteration:  1970
 C         4.499951        -1.024753        -1.440370
 C         3.461427        -0.506933        -0.561610
 O         2.286208         0.019592        -1.158994
 C         1.522698         0.276550        -0.004903
 C         0.078386         0.593926        -0.669804
 C         2.514156         1.357910         0.628572
 C         3.674262         0.343113         0.670090
 C         2.999035        -1.063335         0.701310
 O         1.596180        -0.898528         0.706731
 H         4.415184        -2.099983        -1.593093
 H         4.366571        -0.422808        -2.482445
 H         5.499100        -0.809754        -1.024453
 H        -0.696693         0.925434        -0.031195
 H         0.316001         1.475930        -1.272592
 H        -0.234593        -0.215378        -1.258855
 H         2.672651         2.207241        -0.106434
 H         2.051991         1.907337         1.501991
 H         4.704460         0.487110         1.005995
 H         3.466164        -1.863439         1.297279
