19
Iteration:  3154
 C         4.587822        -1.038648        -1.501094
 C         3.514856        -0.545767        -0.575032
 O         2.260652        -0.427658        -1.241905
 C         1.504317         0.219106        -0.175224
 C        -0.003414         0.378040        -0.315079
 C         2.308009         1.426940         0.311005
 C         3.594044         0.616568         0.425203
 C         3.129969        -0.739780         0.899967
 O         1.721711        -0.699041         0.901736
 H         4.429763        -0.553967        -2.457021
 H         5.599268        -0.662980        -1.129783
 H         4.786358        -2.142246        -1.606250
 H        -0.215492         0.664968         0.725657
 H        -0.271917         0.951662        -1.233166
 H        -0.465238        -0.616993        -0.445703
 H         2.519523         2.301223        -0.362279
 H         1.810539         1.768913         1.336536
 H         4.519696         1.168364         0.780343
 H         3.623550        -1.405673         1.669757
