19
Iteration:    78
 C         4.611875        -1.092100        -1.325265
 C         3.414183        -0.490998        -0.687299
 O         2.082327        -0.687195        -1.060345
 C         1.465911         0.028700        -0.003734
 C        -0.035564         0.023276        -0.314875
 C         2.068289         1.460448         0.043752
 C         3.505162         0.901823        -0.006878
 C         3.421279        -0.405536         0.748484
 O         2.073605        -0.502077         1.260272
 H         5.213371        -0.434085        -1.910477
 H         5.208001        -1.515304        -0.536296
 H         4.380016        -1.921792        -1.975106
 H        -0.570210         0.501952         0.521476
 H        -0.163444         0.619549        -1.182157
 H        -0.456482        -0.975275        -0.505335
 H         1.716460         2.047507        -0.843793
 H         1.853814         2.021283         0.920089
 H         4.420462         1.521902         0.103858
 H         4.177063        -0.699902         1.447769
