19
Iteration:    98charge 0 multiplicity 1
 C         4.638514        -1.106307        -1.321362
 C         3.502596        -0.374115        -0.649208
 O         2.063078        -0.593596        -1.065461
 C         1.432298         0.072112         0.031364
 C        -0.160983         0.051285        -0.194918
 C         2.136166         1.400998        -0.127603
 C         3.537258         0.968225         0.045998
 C         3.430361        -0.381950         0.906278
 O         2.056524        -0.728746         1.140525
 H         4.978681        -0.723533        -2.273150
 H         5.404622        -1.069061        -0.623652
 H         4.333869        -2.101849        -1.461363
 H        -0.765757         0.672147         0.496773
 H        -0.233359         0.430956        -1.214822
 H        -0.450743        -1.022832        -0.217171
 H         1.960654         1.778323        -1.134130
 H         1.902793         2.309852         0.448675
 H         4.380699         1.623655        -0.218451
 H         4.068835        -1.058007         1.402772
