19
Iteration:  2001charge 0 multiplicity 1
 C         4.496307        -1.065000        -1.582012
 C         3.562457        -0.425316        -0.557462
 O         2.373255        -0.168402        -1.269305
 C         1.590061         0.271741        -0.191556
 C         0.163344         0.739167        -0.543595
 C         2.293802         1.241963         0.743546
 C         3.589645         0.377355         0.745066
 C         3.006141        -0.961424         0.798385
 O         1.603749        -0.829359         0.715982
 H         4.444997        -2.145057        -1.579540
 H         4.209285        -0.781520        -2.713684
 H         5.578967        -0.991672        -1.399886
 H        -0.286655         1.152356         0.393676
 H         0.208987         1.591979        -1.287696
 H        -0.414232        -0.083196        -1.117166
 H         2.383055         2.156806         0.148669
 H         1.527081         1.233212         1.472603
 H         4.518767         0.680376         1.220478
 H         3.462561        -1.742585         1.441345
