19
Iteration:  4084
 C         4.545904        -1.024422        -1.500755
 C         3.551650        -0.620485        -0.562787
 O         2.204488        -0.517268        -1.126090
 C         1.480916         0.163051        -0.118903
 C        -0.005721         0.253652        -0.423393
 C         2.262479         1.421104         0.183753
 C         3.565223         0.706863         0.316739
 C         3.263186        -0.623946         0.933230
 O         1.784738        -0.605896         1.033064
 H         4.072828        -1.155917        -2.434312
 H         5.318965        -0.396898        -1.598257
 H         5.080081        -1.935801        -1.289594
 H        -0.226988         0.765023         0.504975
 H        -0.205594         0.965562        -1.249703
 H        -0.495326        -0.701349        -0.689231
 H         2.223131         2.325953        -0.491159
 H         1.875113         1.773658         1.179479
 H         4.385751         1.368341         0.505006
 H         3.865071        -1.107118         1.799947
