19
Iteration:  2394
 C         4.570602        -0.969423        -1.564468
 C         3.613712        -0.553664        -0.459025
 O         2.365175        -0.205577        -1.252546
 C         1.513763         0.283364        -0.180989
 C        -0.000893         0.499201        -0.484520
 C         2.462212         1.349378         0.533847
 C         3.639918         0.417610         0.593815
 C         2.966182        -0.957472         0.821637
 O         1.573845        -0.762413         0.779132
 H         4.498939        -1.972556        -2.014150
 H         4.283626        -0.273247        -2.485747
 H         5.598419        -0.733172        -1.294356
 H        -0.594763         0.745265         0.388320
 H        -0.157767         1.445874        -1.042626
 H        -0.381638        -0.415006        -0.838657
 H         2.408022         2.358523        -0.063416
 H         2.084230         1.627553         1.579923
 H         4.527383         0.645071         1.216706
 H         3.209762        -1.525444         1.676521
