19
Iteration:  2738charge 0 multiplicity 1
 C         4.575988        -1.015029        -1.343617
 C         3.459446        -0.436101        -0.612456
 O         2.223314        -0.114097        -1.249302
 C         1.519317         0.197745        -0.111776
 C         0.054511         0.414305        -0.473578
 C         2.467340         1.474084         0.495191
 C         3.674260         0.508640         0.494854
 C         3.032139        -0.963881         0.758625
 O         1.643295        -0.857824         0.842488
 H         4.373390        -1.094623        -2.410293
 H         5.483231        -0.580929        -1.000394
 H         4.806509        -2.138991        -1.418436
 H        -0.566792         0.658481         0.426896
 H         0.110908         1.320668        -1.145799
 H        -0.416272        -0.377387        -1.086205
 H         2.494388         2.216243        -0.272987
 H         1.970430         1.818951         1.372712
 H         4.592295         0.534855         0.983069
 H         3.568945        -1.711950         1.248986
