19
Iteration:  3915charge 0 multiplicity 1
 C         4.559240        -0.988537        -1.483958
 C         3.530745        -0.502613        -0.586078
 O         2.227703        -0.419784        -1.214671
 C         1.492756         0.127949        -0.105979
 C        -0.001104         0.313695        -0.352732
 C         2.345803         1.407814         0.154033
 C         3.586928         0.615389         0.415082
 C         3.179760        -0.715487         0.951005
 O         1.707563        -0.662008         0.992939
 H         5.546190        -1.220778        -1.056985
 H         4.417499        -1.875041        -1.962939
 H         4.694990        -0.265226        -2.307769
 H        -0.446145         0.621195         0.696910
 H        -0.244190         1.001455        -1.208623
 H        -0.323240        -0.777594        -0.543810
 H         2.462133         2.067919        -0.741955
 H         1.997781         2.051142         1.043395
 H         4.479292         1.104993         0.732553
 H         3.801917        -1.253509         1.681218
