19
Iteration:   889charge 0 multiplicity 1
 C         4.527536        -1.144557        -1.415676
 C         3.535013        -0.403005        -0.600523
 O         2.239648        -0.182189        -1.173656
 C         1.431875         0.133960        -0.085021
 C         0.020261         0.437130        -0.470317
 C         2.271514         1.426051         0.377216
 C         3.663609         0.666388         0.479727
 C         3.213395        -0.809459         0.798912
 O         1.739468        -0.919713         0.844869
 H         4.264388        -2.249044        -1.364662
 H         4.529123        -1.016025        -2.584958
 H         5.498264        -0.899020        -0.972610
 H        -0.464178         0.808507         0.417763
 H         0.066499         1.200004        -1.271919
 H        -0.398568        -0.458445        -0.795547
 H         2.244766         2.118870        -0.492143
 H         2.008099         2.000711         1.313530
 H         4.612514         1.031577         1.019901
 H         3.697805        -1.338882         1.654409
