19
Iteration:   725charge 0 multiplicity 1
 C         4.546484        -1.080657        -1.425031
 C         3.442400        -0.468332        -0.588793
 O         2.212707        -0.292840        -1.233510
 C         1.446970         0.228101        -0.025462
 C         0.014024         0.140248        -0.414014
 C         2.353533         1.524454         0.232129
 C         3.627032         0.641849         0.427952
 C         3.217238        -0.724890         0.857035
 O         1.769883        -0.720859         0.983033
 H         5.114757        -1.870859        -0.859394
 H         4.193071        -1.653228        -2.339425
 H         5.188577        -0.382886        -1.995384
 H        -0.687771         0.523462         0.301286
 H        -0.218153         0.831604        -1.270893
 H        -0.318957        -0.835851        -0.669952
 H         2.454633         2.169141        -0.570436
 H         2.076335         2.044260         1.125345
 H         4.588016         0.910642         0.741957
 H         3.797987        -1.393138         1.461937
