19
Iteration:  2612
 C         4.619452        -1.081683        -1.398134
 C         3.484403        -0.463955        -0.647157
 O         2.274571        -0.148995        -1.287436
 C         1.516120         0.289533        -0.255527
 C        -0.046117         0.378702        -0.353536
 C         2.412913         1.442023         0.505975
 C         3.629112         0.544424         0.576491
 C         3.071826        -0.875439         0.791005
 O         1.630548        -0.833881         0.783142
 H         5.401079        -0.355827        -1.454224
 H         5.122121        -1.903443        -0.799511
 H         4.399752        -1.596879        -2.299080
 H        -0.224349         0.728145         0.624616
 H        -0.411955         0.844789        -1.236805
 H        -0.354191        -0.632560        -0.402048
 H         2.891740         2.276280        -0.137530
 H         1.972269         1.640956         1.541765
 H         4.607981         0.810568         0.911514
 H         3.536783        -1.634421         1.354708
