19
Iteration:  2847charge 0 multiplicity 1
 C         4.564275        -0.939882        -1.547482
 C         3.479210        -0.522298        -0.584364
 O         2.244179        -0.265302        -1.215363
 C         1.508638         0.227543        -0.128776
 C         0.083822         0.417327        -0.530565
 C         2.407269         1.362866         0.481419
 C         3.686496         0.476088         0.535292
 C         3.042555        -0.872309         0.866758
 O         1.641167        -0.704416         0.899743
 H         5.180801        -0.058458        -1.719485
 H         5.182332        -1.602675        -0.967703
 H         4.023589        -1.518606        -2.393089
 H        -0.378208         0.593843         0.405478
 H        -0.083875         1.139390        -1.309543
 H        -0.350166        -0.398689        -1.006779
 H         2.490739         2.267025        -0.133457
 H         1.979332         1.509631         1.489994
 H         4.736799         0.801988         0.815075
 H         3.466198        -1.760533         1.439420
