19
Iteration:  2810charge 0 multiplicity 1
 C         4.516741        -1.035616        -1.443783
 C         3.468965        -0.519813        -0.579022
 O         2.252351        -0.131181        -1.245624
 C         1.459182         0.219598        -0.055321
 C         0.040864         0.430183        -0.535829
 C         2.361378         1.401711         0.457382
 C         3.681756         0.483473         0.607273
 C         3.128580        -0.888511         0.815801
 O         1.703205        -0.814032         0.812381
 H         4.590745        -0.538802        -2.494884
 H         5.478377        -0.952467        -0.862323
 H         4.524581        -2.074865        -1.785844
 H        -0.555003         0.906362         0.307297
 H         0.226679         1.262152        -1.240920
 H        -0.468950        -0.526501        -0.892455
 H         2.463908         2.216644        -0.368686
 H         2.130521         1.957598         1.452022
 H         4.674714         0.740893         0.907606
 H         3.435443        -1.712228         1.389110
