19
Iteration:  3862
 C         4.614106        -1.177018        -1.395511
 C         3.499984        -0.467350        -0.656944
 O         2.209586        -0.412601        -1.319694
 C         1.486558         0.156333        -0.138595
 C        -0.021137         0.345886        -0.337432
 C         2.229503         1.404169         0.398599
 C         3.645087         0.738356         0.327441
 C         3.172308        -0.673910         0.856383
 O         1.786155        -0.664015         0.973251
 H         5.629707        -0.661440        -1.120446
 H         4.838228        -2.181235        -1.023305
 H         4.637225        -1.181149        -2.530201
 H        -0.588705         0.686374         0.579755
 H        -0.026380         0.935486        -1.230776
 H        -0.473441        -0.653892        -0.418012
 H         1.942381         2.351820        -0.171255
 H         1.882943         1.485139         1.485326
 H         4.600341         1.075145         0.538352
 H         3.790913        -1.297203         1.456568
