19
Iteration:  4004
 C         4.557398        -1.238905        -1.416473
 C         3.537841        -0.400668        -0.601781
 O         2.234509        -0.417111        -1.220997
 C         1.490881         0.137308        -0.176487
 C        -0.009392         0.253139        -0.295845
 C         2.260509         1.420090         0.289496
 C         3.589452         0.767854         0.348557
 C         3.193543        -0.578514         0.835109
 O         1.836650        -0.697885         0.914303
 H         4.282141        -2.308761        -1.361437
 H         4.549498        -0.841877        -2.314391
 H         5.435558        -0.993108        -0.853695
 H        -0.595446         0.605738         0.639349
 H        -0.219340         0.879926        -1.194734
 H        -0.561199        -0.718945        -0.345209
 H         2.127484         2.352638        -0.392024
 H         1.811742         1.584377         1.275508
 H         4.527863         1.327169         0.691985
 H         3.751378        -1.122098         1.640079
