19
Iteration:   242
 C         4.668506        -1.125568        -1.308213
 C         3.490146        -0.521920        -0.632734
 O         2.125819        -0.502816        -1.188041
 C         1.452431         0.155311        -0.124455
 C        -0.048103        -0.069903        -0.130325
 C         2.257355         1.547003        -0.113271
 C         3.556877         0.808631         0.118764
 C         3.251912        -0.501983         0.908682
 O         1.889887        -0.553588         1.135002
 H         5.154524        -1.815030        -0.695825
 H         4.371255        -1.547348        -2.233789
 H         5.288738        -0.288409        -1.535050
 H        -0.380041         0.402313         0.798059
 H        -0.636794         0.454325        -0.919367
 H        -0.273517        -1.127037         0.006655
 H         2.196285         1.953911        -1.185062
 H         1.839924         2.196696         0.621984
 H         4.394360         1.391648         0.441887
 H         3.929257        -0.967022         1.606970
