19
Iteration:  3089
 C         4.542869        -1.133839        -1.457121
 C         3.527876        -0.413702        -0.577482
 O         2.230638        -0.270416        -1.243912
 C         1.504777         0.248434        -0.163847
 C         0.036910         0.274868        -0.447272
 C         2.352930         1.455726         0.405328
 C         3.584831         0.636869         0.413972
 C         3.139438        -0.763303         0.882740
 O         1.745619        -0.793890         0.955932
 H         4.078284        -1.616554        -2.313928
 H         5.129472        -0.397506        -2.129291
 H         5.020878        -2.057380        -1.052355
 H        -0.444752         0.569257         0.495875
 H        -0.129396         1.036419        -1.178500
 H        -0.580499        -0.562202        -0.765446
 H         2.437274         2.341047        -0.248904
 H         1.948667         1.779920         1.438042
 H         4.523017         1.009858         0.840712
 H         3.806194        -1.484038         1.523472
