19
Iteration:   937charge 0 multiplicity 1
 C         4.677869        -1.021572        -1.471942
 C         3.509611        -0.530086        -0.618720
 O         2.280237        -0.243248        -1.236459
 C         1.490915         0.362860        -0.157215
 C        -0.022796         0.336778        -0.424784
 C         2.423694         1.422081         0.423910
 C         3.601131         0.468963         0.530919
 C         3.021423        -0.860776         0.799367
 O         1.648492        -0.709156         0.885529
 H         5.503597        -1.342584        -0.787460
 H         4.297894        -2.056179        -1.915235
 H         4.978879        -0.199731        -2.226589
 H        -0.421846         0.479168         0.626245
 H        -0.390980         1.070698        -1.151711
 H        -0.181382        -0.770987        -0.699949
 H         2.480338         2.311617        -0.176915
 H         1.958024         1.632754         1.344657
 H         4.537514         0.763466         0.934535
 H         3.635978        -1.534670         1.360854
