19
Iteration:  2224charge 0 multiplicity 1
 C         4.682404        -1.044155        -1.447888
 C         3.513496        -0.516734        -0.588070
 O         2.302545        -0.154623        -1.289406
 C         1.488481         0.206086        -0.112611
 C         0.082460         0.729328        -0.466525
 C         2.357211         1.287066         0.594447
 C         3.571494         0.455414         0.611391
 C         3.054878        -0.952347         0.738652
 O         1.592911        -0.889677         0.751576
 H         5.444236        -0.247073        -1.704415
 H         5.027174        -1.918201        -0.984055
 H         4.430756        -1.473552        -2.460971
 H        -0.404645         1.044634         0.423631
 H         0.056540         1.608824        -1.030873
 H        -0.581923         0.022388        -0.942413
 H         2.484129         2.149548         0.013351
 H         1.997471         1.585633         1.538882
 H         4.443322         0.903993         1.104740
 H         3.450258        -1.701988         1.363733
