19
Iteration:  3716
 C         4.577158        -1.125196        -1.408105
 C         3.500425        -0.482024        -0.601980
 O         2.262812        -0.416455        -1.238847
 C         1.492998         0.230931        -0.148960
 C        -0.070803         0.179777        -0.237811
 C         2.331752         1.522085         0.166036
 C         3.622141         0.694089         0.374445
 C         3.185780        -0.681096         0.864106
 O         1.730252        -0.673254         0.955860
 H         5.105415        -1.925107        -0.911873
 H         4.166092        -1.356983        -2.387610
 H         5.425414        -0.565782        -1.618225
 H        -0.368128         0.655283         0.722197
 H        -0.420092         0.740603        -1.199924
 H        -0.374670        -0.924385        -0.301262
 H         2.175807         2.211895        -0.690680
 H         2.062635         1.950043         1.211490
 H         4.579939         1.149000         0.740385
 H         3.767910        -1.311848         1.544917
