19
Iteration:  3313
 C         4.620165        -1.105498        -1.373072
 C         3.490737        -0.567111        -0.636265
 O         2.204540        -0.445079        -1.244367
 C         1.458475         0.124488        -0.140709
 C        -0.025123         0.353418        -0.294196
 C         2.292571         1.413211         0.328154
 C         3.619441         0.731945         0.289582
 C         3.202887        -0.672767         0.840091
 O         1.783199        -0.663042         0.947153
 H         5.482583        -0.500088        -0.955654
 H         4.644181        -2.228838        -1.454103
 H         4.613946        -0.725042        -2.485222
 H        -0.484764         0.910485         0.509791
 H        -0.422068         1.055803        -1.020817
 H        -0.489079        -0.556710        -0.513397
 H         2.159664         2.266595        -0.296161
 H         1.971959         1.583926         1.289547
 H         4.639565         1.078800         0.582872
 H         3.854077        -1.244522         1.608610
