19
Iteration:  1198
 C         4.620914        -1.071354        -1.388620
 C         3.436943        -0.421378        -0.613243
 O         2.254171        -0.018595        -1.262057
 C         1.477145         0.230531        -0.065396
 C         0.146334         0.591314        -0.489552
 C         2.451293         1.289495         0.600526
 C         3.629064         0.548445         0.577543
 C         3.019465        -1.026820         0.704198
 O         1.616027        -0.970249         0.705493
 H         5.506733        -0.634317        -0.883729
 H         4.498599        -2.091064        -1.039512
 H         4.655881        -0.848053        -2.467047
 H        -0.346905         0.967707         0.398351
 H         0.317224         1.468443        -1.188378
 H        -0.466978        -0.157477        -0.916651
 H         2.390121         2.257651        -0.113394
 H         1.899327         1.661429         1.590256
 H         4.549898         0.679525         1.070495
 H         3.378136        -1.918848         1.215554
