19
Iteration:  1821charge 0 multiplicity 1
 C         4.517636        -0.977491        -1.485477
 C         3.545517        -0.437722        -0.536389
 O         2.310736         0.076191        -1.250748
 C         1.522826         0.294045        -0.107277
 C         0.111196         0.547008        -0.590719
 C         2.473188         1.287152         0.514785
 C         3.644951         0.334750         0.763595
 C         2.950824        -1.127892         0.765067
 O         1.601907        -0.856005         0.768338
 H         3.847778        -1.059450        -2.390550
 H         5.315859        -0.316151        -1.703537
 H         4.963348        -1.967546        -1.207492
 H        -0.392068         0.911810         0.351783
 H         0.012730         1.418450        -1.390110
 H        -0.256379        -0.437074        -0.892557
 H         2.638924         1.998274        -0.263086
 H         1.976311         1.810941         1.353909
 H         4.518635         0.472624         1.388077
 H         3.262118        -2.138821         1.264732
