19
Iteration:  1098charge 0 multiplicity 1
 C         4.606697        -1.010194        -1.412290
 C         3.519210        -0.438464        -0.630412
 O         2.244181        -0.243601        -1.295998
 C         1.492368         0.182352        -0.118923
 C         0.086371         0.690287        -0.502998
 C         2.325268         1.290995         0.562082
 C         3.630154         0.512798         0.599750
 C         3.106639        -0.909596         0.747876
 O         1.673666        -0.905522         0.820171
 H         4.125683        -1.831572        -1.894607
 H         4.961831        -0.254721        -2.237027
 H         5.308790        -1.451896        -0.729496
 H        -0.639430         0.989503         0.278529
 H         0.115285         1.475213        -1.216796
 H        -0.277656        -0.217833        -1.068159
 H         2.340794         2.338659        -0.007258
 H         1.796798         1.495658         1.612234
 H         4.534992         0.906974         1.132524
 H         3.530801        -1.641247         1.472129
