19
Iteration:  1579charge 0 multiplicity 1
 C         4.510255        -0.950438        -1.451925
 C         3.436011        -0.475795        -0.620226
 O         2.313920        -0.021634        -1.221483
 C         1.506276         0.264081        -0.047542
 C         0.225139         0.825563        -0.656338
 C         2.408490         1.214922         0.698037
 C         3.608287         0.334568         0.696291
 C         2.985889        -1.126060         0.690294
 O         1.592746        -0.929226         0.742592
 H         5.515963        -0.673680        -0.974013
 H         4.579935        -2.110775        -1.291829
 H         4.642689        -0.644160        -2.523156
 H        -0.474642         1.198833         0.132397
 H         0.569312         1.635757        -1.290586
 H        -0.311833         0.048580        -1.329756
 H         2.655972         1.900229        -0.024958
 H         1.965970         1.718859         1.541598
 H         4.456654         0.469509         1.333899
 H         3.404393        -2.124871         1.060384
