19
Iteration:  2527
 C         4.646407        -0.985896        -1.506785
 C         3.467001        -0.518423        -0.595329
 O         2.236874        -0.196284        -1.258839
 C         1.480416         0.287281        -0.118834
 C         0.098681         0.517526        -0.523512
 C         2.368349         1.350096         0.490469
 C         3.653131         0.498909         0.543525
 C         3.045795        -0.930364         0.811659
 O         1.643053        -0.856477         0.955607
 H         4.465218        -0.616978        -2.523778
 H         5.634429        -0.602810        -0.979918
 H         4.668159        -2.074406        -1.726981
 H        -0.598643         0.673063         0.307192
 H         0.040306         1.391468        -1.182931
 H        -0.249434        -0.342701        -1.098847
 H         2.468109         2.245536        -0.184185
 H         1.913779         1.735297         1.426403
 H         4.612586         0.781920         0.939783
 H         3.527834        -1.730970         1.340294
