19
Iteration:   429charge 0 multiplicity 1
 C         4.528589        -1.164356        -1.416582
 C         3.510707        -0.458320        -0.609393
 O         2.143170        -0.496885        -1.134444
 C         1.419720         0.104168        -0.003080
 C        -0.041705         0.126850        -0.425926
 C         2.228737         1.482159         0.119271
 C         3.590753         0.965576         0.253509
 C         3.370750        -0.503626         0.848269
 O         1.931171        -0.780482         1.134026
 H         4.105380        -2.038289        -1.853731
 H         5.020483        -0.712215        -2.265380
 H         5.349441        -1.438416        -0.704480
 H        -0.743239         0.597541         0.366873
 H        -0.209761         0.802684        -1.315896
 H        -0.684124        -0.776795        -0.690312
 H         2.083074         1.917865        -0.848175
 H         1.833422         2.309563         0.825567
 H         4.532196         1.555615         0.402981
 H         3.923437        -1.164744         1.586304
