19
Iteration:  1554
 C         4.616018        -1.043708        -1.548760
 C         3.555393        -0.525020        -0.548947
 O         2.307702        -0.124837        -1.257128
 C         1.552281         0.310178        -0.191624
 C         0.139119         0.854955        -0.606296
 C         2.383601         1.245871         0.825437
 C         3.628853         0.446720         0.667116
 C         2.965842        -1.078736         0.799565
 O         1.522857        -0.940934         0.664241
 H         5.609778        -0.731760        -1.498342
 H         4.655579        -2.177381        -1.536144
 H         4.354922        -0.678318        -2.552332
 H        -0.470701         1.044550         0.274840
 H         0.422672         1.816692        -1.087339
 H        -0.388175         0.249795        -1.298797
 H         2.422118         2.389511         0.610751
 H         1.724592         1.150227         1.722750
 H         4.567517         0.403699         1.218616
 H         3.398567        -1.695398         1.542048
