19
Iteration:  1330charge 0 multiplicity 1
 C         4.572186        -1.063835        -1.430745
 C         3.546664        -0.474610        -0.598194
 O         2.299452        -0.112702        -1.296347
 C         1.473708         0.268825        -0.187067
 C         0.090055         0.775716        -0.479013
 C         2.382632         1.238842         0.654335
 C         3.612202         0.423802         0.722100
 C         3.027968        -0.933607         0.745787
 O         1.608664        -0.989144         0.663071
 H         4.123992        -1.474131        -2.367958
 H         5.261518        -0.341953        -1.702657
 H         5.159498        -1.827736        -0.949545
 H        -0.355047         0.905952         0.505401
 H         0.234580         1.817389        -0.868078
 H        -0.349057         0.245291        -1.298408
 H         2.594804         2.258975         0.034319
 H         2.096653         1.481782         1.759758
 H         4.410317         0.810079         1.418448
 H         3.505447        -1.827802         1.139926
