19
Iteration:  4750
 C         4.545354        -1.257000        -1.307609
 C         3.478225        -0.402312        -0.636325
 O         2.208569        -0.356213        -1.174820
 C         1.447603         0.139895        -0.019997
 C        -0.074335         0.079683        -0.311733
 C         2.196315         1.431908         0.122075
 C         3.629170         0.834476         0.218820
 C         3.315795        -0.545708         0.828360
 O         1.885805        -0.687937         1.021329
 H         5.554128        -0.827655        -1.146191
 H         4.662330        -2.358397        -0.985590
 H         4.409187        -1.222030        -2.383638
 H        -0.579533         0.769010         0.404668
 H        -0.021747         0.700616        -1.229289
 H        -0.546136        -0.872468        -0.306656
 H         1.974821         2.311330        -0.680131
 H         1.833128         2.090356         1.045561
 H         4.530552         1.341000         0.367552
 H         3.902827        -1.345571         1.327659
