19
Iteration:  2821charge 0 multiplicity 1
 C         4.585304        -1.023768        -1.501320
 C         3.463560        -0.514914        -0.596598
 O         2.220836        -0.166237        -1.252086
 C         1.455201         0.281465        -0.042811
 C         0.048042         0.457373        -0.570105
 C         2.447046         1.441029         0.470850
 C         3.642252         0.467501         0.580459
 C         3.078636        -0.940477         0.795516
 O         1.706672        -0.828110         0.944973
 H         4.857020        -0.106024        -2.178071
 H         5.589466        -1.131361        -0.981356
 H         4.224404        -2.007746        -1.844428
 H        -0.814692         0.720105         0.123030
 H        -0.105120         1.085990        -1.485590
 H        -0.240946        -0.570331        -1.044449
 H         2.548047         2.243788        -0.379932
 H         1.932778         1.854606         1.437950
 H         4.613687         0.677959         0.928410
 H         3.595944        -1.628020         1.388433
