19
Iteration:  4501
 C         4.547281        -1.083515        -1.481895
 C         3.551920        -0.514865        -0.568659
 O         2.154339        -0.542166        -1.100274
 C         1.451083         0.133154        -0.082104
 C        -0.058905         0.043235        -0.301186
 C         2.254285         1.481083         0.010264
 C         3.643946         0.845292         0.248231
 C         3.263956        -0.511290         0.940857
 O         1.850550        -0.589531         1.101245
 H         4.097638        -1.744492        -2.253681
 H         5.242192        -0.316348        -2.011711
 H         5.229330        -1.843106        -1.136640
 H        -0.535028         0.521994         0.603216
 H        -0.222109         0.731980        -1.177986
 H        -0.342220        -1.020282        -0.445261
 H         2.235284         1.905052        -0.924798
 H         1.903732         2.150018         0.803118
 H         4.496961         1.492944         0.498150
 H         3.658649        -1.238337         1.533969
