19
Iteration:   335charge 0 multiplicity 1
 C         4.549913        -1.117405        -1.374716
 C         3.467588        -0.485797        -0.635352
 O         2.145330        -0.525901        -1.122362
 C         1.417674         0.085185        -0.062143
 C         0.048710         0.085932        -0.333316
 C         2.192907         1.500446        -0.070080
 C         3.563850         0.898964         0.265501
 C         3.269028        -0.491374         0.865406
 O         1.989670        -0.689633         1.218155
 H         5.108677        -0.313152        -2.003117
 H         5.234761        -1.772738        -0.761697
 H         3.993690        -1.834834        -2.025375
 H        -0.674698         0.597057         0.314341
 H        -0.119531         0.528533        -1.274042
 H        -0.480871        -0.895682        -0.408953
 H         2.096651         1.965686        -1.064583
 H         1.654661         2.224247         0.655087
 H         4.494037         1.418880         0.441268
 H         4.106424        -0.935128         1.423555
