19
Iteration:   894
 C         4.508174        -1.136683        -1.369019
 C         3.525028        -0.374897        -0.600624
 O         2.278539        -0.176671        -1.205885
 C         1.445589         0.167931        -0.052999
 C         0.022954         0.436795        -0.458121
 C         2.300952         1.416182         0.376343
 C         3.670009         0.650233         0.444217
 C         3.223153        -0.799740         0.795633
 O         1.695694        -0.930599         0.853006
 H         4.415863        -2.214180        -1.272714
 H         4.422181        -1.057351        -2.462489
 H         5.552498        -0.771088        -1.169343
 H        -0.645121         0.682756         0.421437
 H        -0.075117         1.103342        -1.316727
 H        -0.515581        -0.540399        -0.796775
 H         2.326472         2.086761        -0.477581
 H         2.026503         1.873446         1.311372
 H         4.572723         0.885726         0.907088
 H         3.666633        -1.400851         1.552861
