19
Iteration:   531
 C         4.633166        -1.088846        -1.434758
 C         3.505396        -0.500758        -0.610366
 O         2.207904        -0.546860        -1.156288
 C         1.414572         0.102724        -0.142535
 C        -0.055699         0.281250        -0.351941
 C         2.219658         1.379698         0.249089
 C         3.564394         0.786212         0.192354
 C         3.267482        -0.573458         0.925128
 O         1.889283        -0.656796         1.019745
 H         5.559023        -0.870358        -0.848362
 H         4.498065        -2.141878        -1.661413
 H         4.691676        -0.604953        -2.369915
 H        -0.616115         0.818178         0.427420
 H        -0.408837         0.903737        -1.215572
 H        -0.553214        -0.696020        -0.476300
 H         2.011714         2.199508        -0.532615
 H         2.026819         1.689693         1.302751
 H         4.460171         1.434349         0.445065
 H         3.876427        -0.875843         1.867729
