19
Iteration:  4609
 C         4.544116        -1.269324        -1.341481
 C         3.483970        -0.378246        -0.599325
 O         2.217416        -0.431733        -1.225358
 C         1.452317         0.208577        -0.072537
 C        -0.042695         0.050620        -0.269810
 C         2.287692         1.472598         0.132021
 C         3.588352         0.841116         0.250987
 C         3.263254        -0.488039         0.804150
 O         1.896235        -0.673625         1.033416
 H         4.643713        -2.115066        -0.648409
 H         3.930707        -1.617329        -2.277013
 H         5.444551        -0.679303        -1.496480
 H        -0.804571         0.358371         0.447760
 H        -0.413108         0.379902        -1.245244
 H        -0.163971        -1.000183        -0.230136
 H         2.008527         2.208059        -0.628574
 H         1.947769         2.028501         1.049483
 H         4.492411         1.389956         0.616150
 H         3.864283        -1.258353         1.312694
