19
Iteration:  4891
 C         4.593817        -1.126497        -1.357009
 C         3.572813        -0.474184        -0.568169
 O         2.183402        -0.488178        -1.150936
 C         1.458565         0.100382        -0.063902
 C        -0.078475         0.113209        -0.227379
 C         2.214235         1.498170        -0.058535
 C         3.552996         0.873966         0.221794
 C         3.304272        -0.612663         0.860829
 O         1.859477        -0.645483         1.068283
 H         5.241044        -1.835857        -0.827113
 H         4.019868        -1.741040        -2.091934
 H         5.151596        -0.513707        -2.065415
 H        -0.551988         0.588432         0.674916
 H        -0.099853         0.801496        -1.114075
 H        -0.375054        -0.936223        -0.337510
 H         2.137673         2.153774        -0.962987
 H         1.802506         2.172264         0.695220
 H         4.433213         1.285815         0.723673
 H         3.823536        -1.057542         1.619069
