19
Iteration:  3178
 C         4.631339        -1.031312        -1.413379
 C         3.502194        -0.459205        -0.589564
 O         2.218499        -0.341356        -1.277674
 C         1.453647         0.213742        -0.100903
 C        -0.073135         0.336204        -0.306455
 C         2.365697         1.424206         0.207831
 C         3.649485         0.647581         0.440716
 C         3.133567        -0.775596         0.841655
 O         1.745940        -0.786119         0.962850
 H         4.962957        -0.391559        -2.280859
 H         5.532786        -1.345670        -0.747083
 H         4.329982        -2.016816        -1.766125
 H        -0.358671         0.713404         0.670398
 H        -0.202861         0.898581        -1.162761
 H        -0.628881        -0.611480        -0.484839
 H         2.430186         2.081060        -0.685199
 H         1.944983         1.980663         1.077858
 H         4.589930         1.125476         0.732316
 H         3.696104        -1.414726         1.401066
