19
Iteration:  3101charge 0 multiplicity 1
 C         4.551708        -1.142201        -1.529015
 C         3.475853        -0.505059        -0.633374
 O         2.165644        -0.279373        -1.188498
 C         1.487370         0.218062        -0.062120
 C         0.071871         0.346444        -0.498715
 C         2.308236         1.444698         0.371255
 C         3.658201         0.683661         0.523905
 C         3.169113        -0.732989         0.806667
 O         1.744429        -0.802087         0.970555
 H         3.999095        -1.499608        -2.411110
 H         5.456403        -0.413955        -1.632914
 H         5.095639        -1.881290        -0.935136
 H        -0.584405         0.594169         0.339991
 H        -0.095039         1.015854        -1.314804
 H         0.021038        -0.704700        -0.833048
 H         2.279836         2.218623        -0.392812
 H         1.892482         1.811307         1.326950
 H         4.672573         1.129198         0.782235
 H         3.712177        -1.468609         1.494689
