19
Iteration:  1379charge 0 multiplicity 1
 C         4.626962        -1.036400        -1.427213
 C         3.486250        -0.516480        -0.609791
 O         2.346099        -0.003096        -1.322088
 C         1.525982         0.402551        -0.163022
 C         0.021176         0.612328        -0.496820
 C         2.529017         1.283423         0.724470
 C         3.700060         0.336499         0.695205
 C         2.908308        -1.019763         0.747106
 O         1.496377        -0.860533         0.642795
 H         4.597624        -2.148026        -1.507149
 H         4.761722        -0.599094        -2.516140
 H         5.613035        -0.769653        -0.898097
 H        -0.416431         0.839340         0.472786
 H        -0.260769         1.352539        -1.266209
 H        -0.239476        -0.360069        -0.913358
 H         2.510223         2.238628         0.369393
 H         2.007011         1.237498         1.639764
 H         4.681833         0.385338         1.138386
 H         3.369504        -1.848775         1.373044
