19
Iteration:  3942
 C         4.554497        -1.051847        -1.489048
 C         3.500141        -0.580026        -0.577588
 O         2.259194        -0.476764        -1.186654
 C         1.492740         0.238146        -0.203034
 C        -0.027088         0.190049        -0.410630
 C         2.337603         1.487799         0.309631
 C         3.618330         0.698296         0.413000
 C         3.152533        -0.695946         0.918791
 O         1.752509        -0.610593         1.034359
 H         5.287559        -1.854598        -1.363581
 H         4.040278        -1.533968        -2.501202
 H         5.071621        -0.235503        -2.033868
 H        -0.417290         0.574266         0.484757
 H        -0.433794         0.805418        -1.224126
 H        -0.187517        -0.819125        -0.697071
 H         2.478043         2.390276        -0.340159
 H         1.910885         1.785967         1.231610
 H         4.519228         1.379046         0.381498
 H         3.682882        -1.285659         1.652429
