19
Iteration:  2772
 C         4.649235        -1.198721        -1.441918
 C         3.519688        -0.485772        -0.626550
 O         2.322425        -0.195702        -1.315961
 C         1.480711         0.204820        -0.225427
 C        -0.016116         0.528559        -0.330899
 C         2.265123         1.401281         0.547694
 C         3.597450         0.562557         0.633569
 C         3.123789        -0.861135         0.782391
 O         1.709447        -0.805421         0.724430
 H         4.536563        -0.867464        -2.433468
 H         5.594269        -0.703726        -1.296304
 H         4.691080        -2.279457        -1.141205
 H        -0.396168         1.046705         0.593063
 H        -0.080839         1.382713        -1.100809
 H        -0.765964        -0.190188        -0.619180
 H         2.290967         2.271661         0.002331
 H         1.747956         1.580633         1.443170
 H         4.525775         0.857758         1.202445
 H         3.593859        -1.654064         1.411205
