19
Iteration:  3943charge 0 multiplicity 1
 C         4.551439        -1.057662        -1.488973
 C         3.498860        -0.574205        -0.574326
 O         2.254148        -0.473064        -1.186284
 C         1.490716         0.230673        -0.192581
 C        -0.023279         0.191194        -0.412667
 C         2.341269         1.493942         0.309689
 C         3.612736         0.700378         0.408736
 C         3.169997        -0.699265         0.920588
 O         1.749198        -0.610224         1.029121
 H         5.269544        -1.850135        -1.336691
 H         4.024883        -1.511642        -2.501513
 H         5.101496        -0.246798        -2.001685
 H        -0.426592         0.574312         0.440109
 H        -0.456344         0.782921        -1.224512
 H        -0.159500        -0.810190        -0.725396
 H         2.473840         2.348590        -0.327332
 H         1.925909         1.793380         1.244675
 H         4.486049         1.339490         0.376327
 H         3.690592        -1.261512         1.612223
