19
Iteration:  2844
 C         4.547522        -0.932037        -1.554872
 C         3.487962        -0.506326        -0.585836
 O         2.234318        -0.258924        -1.192558
 C         1.484115         0.261397        -0.150088
 C         0.120012         0.395105        -0.550405
 C         2.408165         1.345092         0.478658
 C         3.696726         0.465048         0.530430
 C         3.052683        -0.878186         0.851001
 O         1.623749        -0.718257         0.927758
 H         5.282519        -0.071751        -1.745614
 H         5.249691        -1.581088        -0.983842
 H         4.125610        -1.643639        -2.323054
 H        -0.409367         0.680793         0.388079
 H        -0.113589         1.205673        -1.243549
 H        -0.386155        -0.496923        -1.010447
 H         2.529314         2.318075        -0.165706
 H         2.079013         1.563907         1.591668
 H         4.619525         0.846951         0.797941
 H         3.407035        -1.739662         1.382294
