19
Iteration:  2619charge 0 multiplicity 1
 C         4.656734        -1.108587        -1.345250
 C         3.492712        -0.472136        -0.582854
 O         2.227947        -0.124101        -1.296038
 C         1.516360         0.329865        -0.245185
 C         0.029018         0.331040        -0.329010
 C         2.427384         1.414756         0.519209
 C         3.580642         0.512014         0.485126
 C         3.070774        -0.890941         0.781733
 O         1.651730        -0.801438         0.755516
 H         5.446361        -0.369163        -1.699409
 H         5.078065        -1.871516        -0.758555
 H         4.576520        -1.491713        -2.399688
 H        -0.379797         0.908514         0.602757
 H        -0.473929         0.981386        -1.218578
 H        -0.628277        -0.610506        -0.443367
 H         2.578689         2.359642         0.060257
 H         2.005956         1.542060         1.485187
 H         4.549196         0.830720         0.813318
 H         3.568550        -1.610686         1.466128
