19
Iteration:  4480charge 0 multiplicity 1
 C         4.500713        -1.185481        -1.408161
 C         3.529804        -0.470951        -0.611903
 O         2.257166        -0.529625        -1.201982
 C         1.483887         0.164729        -0.191838
 C        -0.028618         0.026111        -0.216774
 C         2.195689         1.517759         0.125976
 C         3.545936         0.805711         0.274458
 C         3.268542        -0.464192         0.884112
 O         1.869991        -0.576217         1.061533
 H         3.953180        -1.745238        -2.215369
 H         5.335203        -0.674187        -1.997921
 H         4.964140        -1.995278        -0.918532
 H        -0.340218         0.563199         0.734739
 H        -0.419481         0.515271        -1.191135
 H        -0.183164        -1.063084        -0.293541
 H         2.153944         2.197068        -0.625839
 H         1.901906         1.837726         1.134664
 H         4.519640         1.296873         0.305950
 H         3.816604        -0.710373         1.723415
