19
Iteration:  3739charge 0 multiplicity 1
 C         4.635213        -1.082979        -1.385540
 C         3.498445        -0.461143        -0.589027
 O         2.137573        -0.340106        -1.219869
 C         1.465904         0.118084        -0.075188
 C        -0.037179         0.318408        -0.250358
 C         2.317782         1.401442         0.068545
 C         3.547780         0.690450         0.413997
 C         3.235375        -0.670060         0.864743
 O         1.801232        -0.775932         0.975460
 H         5.217015        -1.831505        -0.808439
 H         4.188597        -1.363776        -2.271037
 H         5.486293        -0.466247        -1.650425
 H        -0.468333         0.823551         0.627009
 H        -0.072887         0.923352        -1.238209
 H        -0.496869        -0.688112        -0.525631
 H         2.436951         1.707223        -0.973278
 H         2.060072         2.303843         0.802385
 H         4.534066         1.331657         0.509863
 H         3.812254        -1.409046         1.554825
