19
Iteration:   241
 C         4.673034        -1.127388        -1.315253
 C         3.496480        -0.527018        -0.631735
 O         2.131440        -0.504555        -1.178773
 C         1.449205         0.162132        -0.137279
 C        -0.037112        -0.064664        -0.128933
 C         2.240590         1.541102        -0.111005
 C         3.551303         0.808071         0.111806
 C         3.246342        -0.499195         0.913769
 O         1.888498        -0.553275         1.133072
 H         5.146441        -1.846631        -0.688635
 H         4.360723        -1.533425        -2.248926
 H         5.306280        -0.293644        -1.520716
 H        -0.360850         0.412000         0.813589
 H        -0.634301         0.441644        -0.897944
 H        -0.296107        -1.127467        -0.003339
 H         2.177653         2.011390        -1.157698
 H         1.862646         2.182035         0.644182
 H         4.415339         1.388249         0.428652
 H         3.949590        -0.974982         1.624317
