19
Iteration:   611
 C         4.565637        -1.098501        -1.480686
 C         3.501421        -0.447399        -0.562901
 O         2.259560        -0.430925        -1.184535
 C         1.514523         0.224200        -0.210804
 C        -0.021681         0.108331        -0.339964
 C         2.289784         1.491670         0.257366
 C         3.636866         0.744161         0.324578
 C         3.168413        -0.653726         0.875985
 O         1.738678        -0.661586         1.000758
 H         4.288438        -0.856415        -2.519541
 H         5.589781        -0.862244        -1.091152
 H         4.386792        -2.198298        -1.283084
 H        -0.254352         0.315107         0.691271
 H        -0.471643         0.724123        -1.096057
 H        -0.256094        -0.944572        -0.470534
 H         2.267984         2.399231        -0.467061
 H         1.908626         1.721439         1.260541
 H         4.593440         1.053516         0.622456
 H         3.800373        -1.044222         1.605546
