19
Iteration:  3690
 C         4.549103        -1.208244        -1.453968
 C         3.439425        -0.513909        -0.616924
 O         2.170604        -0.379344        -1.254789
 C         1.504556         0.223243        -0.150062
 C        -0.019631         0.140631        -0.420014
 C         2.268710         1.458288         0.326072
 C         3.690129         0.740198         0.341997
 C         3.222339        -0.619200         0.893389
 O         1.819757        -0.612942         1.070652
 H         5.055752        -2.023285        -0.879723
 H         4.166176        -1.445804        -2.534519
 H         5.440602        -0.489442        -1.667362
 H        -0.467785         0.656211         0.476189
 H        -0.236570         0.701155        -1.325669
 H        -0.276997        -0.906361        -0.656068
 H         2.028665         2.313750        -0.353112
 H         1.898416         1.632995         1.283201
 H         4.616397         1.225874         0.570927
 H         3.757692        -1.187972         1.666010
