19
Iteration:  1018charge 0 multiplicity 1
 C         4.547816        -1.035375        -1.430193
 C         3.462101        -0.496345        -0.566138
 O         2.280745        -0.187545        -1.276060
 C         1.498576         0.289617        -0.120984
 C         0.087984         0.484765        -0.517841
 C         2.409250         1.345015         0.527418
 C         3.624509         0.513096         0.463515
 C         3.077308        -0.907987         0.851499
 O         1.670863        -0.843319         0.843684
 H         4.786525        -0.233450        -2.155922
 H         5.390623        -1.221310        -0.861542
 H         4.399531        -1.938184        -1.988910
 H        -0.527734         0.836781         0.337373
 H        -0.054699         1.220806        -1.390404
 H        -0.297314        -0.473365        -0.840161
 H         2.396464         2.321882        -0.023485
 H         1.913790         1.480643         1.576609
 H         4.439962         1.036162         0.925097
 H         3.519804        -1.604214         1.524264
