19
Iteration:   569charge 0 multiplicity 1
 C         4.492596        -1.071567        -1.393466
 C         3.520239        -0.404899        -0.616039
 O         2.199085        -0.379282        -1.185913
 C         1.455938         0.142475        -0.106774
 C        -0.045703         0.142541        -0.414776
 C         2.280717         1.426830         0.154117
 C         3.609623         0.757478         0.335149
 C         3.233708        -0.667336         0.861481
 O         1.884257        -0.707563         1.120626
 H         5.394197        -0.461046        -1.721008
 H         5.050769        -1.810069        -0.737394
 H         3.983685        -1.467526        -2.361819
 H        -0.567786         0.428039         0.503626
 H        -0.158730         0.785486        -1.253950
 H        -0.394967        -0.865286        -0.711212
 H         2.300194         1.994376        -0.772810
 H         1.960228         2.147448         0.933966
 H         4.502993         1.288281         0.488098
 H         3.716977        -1.307032         1.526952
