19
Iteration:  4826charge 0 multiplicity 1
 C         4.627899        -1.040143        -1.472189
 C         3.430683        -0.513397        -0.594948
 O         2.106345        -0.519492        -1.121388
 C         1.473688         0.099157        -0.043452
 C         0.000471         0.115756        -0.357228
 C         2.307224         1.469087         0.020445
 C         3.605014         0.720285         0.264966
 C         3.316997        -0.521969         0.895882
 O         1.791564        -0.602446         1.159607
 H         5.449618        -0.768661        -0.820382
 H         4.509081        -2.082451        -1.766556
 H         4.816880        -0.551813        -2.402075
 H        -0.663219         0.446650         0.485563
 H        -0.213294         0.835353        -1.202335
 H        -0.327860        -0.897496        -0.567751
 H         2.310445         2.098172        -1.007057
 H         1.973699         2.167194         0.896362
 H         4.505952         1.186560         0.417046
 H         3.809421        -1.182582         1.484310
