19
Iteration:  2620
 C         4.665758        -1.109510        -1.343861
 C         3.493980        -0.475446        -0.579221
 O         2.225149        -0.122937        -1.301761
 C         1.510625         0.333661        -0.235021
 C         0.033007         0.328140        -0.327565
 C         2.427118         1.407631         0.516403
 C         3.581128         0.507248         0.478029
 C         3.068984        -0.893443         0.781049
 O         1.657067        -0.796496         0.753136
 H         5.432017        -0.382773        -1.699343
 H         5.078025        -1.870984        -0.742595
 H         4.556360        -1.470034        -2.369772
 H        -0.399582         0.915465         0.570906
 H        -0.453308         1.009344        -1.200285
 H        -0.609048        -0.588927        -0.430001
 H         2.510562         2.391541         0.076223
 H         2.004001         1.542694         1.503105
 H         4.525993         0.830903         0.798237
 H         3.552890        -1.594123         1.458175
