19
Iteration:   291
 C         4.588131        -1.177548        -1.461361
 C         3.552706        -0.543340        -0.556553
 O         2.175611        -0.589631        -1.176330
 C         1.464919         0.059734        -0.134266
 C         0.044310         0.040215        -0.309541
 C         2.142148         1.500452         0.093407
 C         3.523496         0.929556         0.094370
 C         3.258321        -0.441215         0.928971
 O         1.887294        -0.558792         1.180044
 H         5.610549        -0.685748        -1.237422
 H         4.560848        -2.305064        -1.334719
 H         4.222038        -0.919428        -2.487989
 H        -0.434217         0.756987         0.411533
 H        -0.234793         0.462540        -1.254443
 H        -0.350349        -0.973105        -0.078794
 H         1.920350         2.224670        -0.680995
 H         2.024553         1.874751         1.190528
 H         4.480350         1.365584         0.453983
 H         3.991943        -0.595499         1.779655
