19
Iteration:  4823
 C         4.600636        -1.060957        -1.459814
 C         3.460635        -0.500344        -0.610286
 O         2.087097        -0.487726        -1.136782
 C         1.475184         0.077602        -0.050394
 C        -0.015212         0.092766        -0.365506
 C         2.316928         1.481284         0.011051
 C         3.612345         0.723696         0.285354
 C         3.283816        -0.501730         0.906454
 O         1.805542        -0.609522         1.163282
 H         5.490087        -0.763654        -0.862862
 H         4.551806        -2.104404        -1.700526
 H         4.742210        -0.584831        -2.507629
 H        -0.645668         0.467629         0.506722
 H        -0.122664         0.846987        -1.208892
 H        -0.317821        -0.969814        -0.557082
 H         2.280863         2.083561        -0.862715
 H         2.061856         2.117887         0.779119
 H         4.573947         1.159748         0.525616
 H         3.969168        -1.197965         1.551121
