19
Iteration:   566
 C         4.523115        -1.089683        -1.409322
 C         3.498613        -0.386016        -0.612306
 O         2.193635        -0.404681        -1.181553
 C         1.480622         0.116367        -0.120054
 C        -0.046425         0.148093        -0.411253
 C         2.277832         1.453728         0.175283
 C         3.586662         0.767525         0.316364
 C         3.235908        -0.665827         0.864546
 O         1.877416        -0.706448         1.124584
 H         5.335768        -0.376690        -1.678399
 H         4.935717        -1.909350        -0.780299
 H         4.069720        -1.433097        -2.333991
 H        -0.527604         0.462681         0.479070
 H        -0.109632         0.820952        -1.274440
 H        -0.385434        -0.804442        -0.715016
 H         2.271906         2.090940        -0.813319
 H         2.058126         2.082294         1.019341
 H         4.485071         1.348299         0.492372
 H         3.739282        -1.385873         1.562913
