19
Iteration:  4213charge 0 multiplicity 1
 C         4.535660        -1.035791        -1.501693
 C         3.512347        -0.460093        -0.541426
 O         2.181500        -0.508278        -1.086342
 C         1.429964         0.106657        -0.004758
 C        -0.009619         0.292199        -0.362089
 C         2.268053         1.368973        -0.022253
 C         3.613352         0.835571         0.303735
 C         3.265183        -0.659842         0.869202
 O         1.806713        -0.713836         1.114249
 H         5.514276        -0.452995        -1.473000
 H         4.936870        -1.979194        -1.106440
 H         4.163508        -1.113012        -2.593429
 H        -0.716063         0.720048         0.378208
 H         0.188046         0.932722        -1.251204
 H        -0.361570        -0.742497        -0.578126
 H         2.244639         1.938879        -1.021972
 H         2.075310         2.004965         0.816664
 H         4.514258         1.455790         0.604089
 H         3.930107        -1.340435         1.581412
