19
Iteration:   504charge 0 multiplicity 1
 C         4.582176        -1.037118        -1.385117
 C         3.451594        -0.435908        -0.631631
 O         2.175485        -0.467339        -1.192124
 C         1.446059         0.107833        -0.074306
 C         0.065806         0.162450        -0.264660
 C         2.257473         1.453826         0.038345
 C         3.599719         0.800358         0.363788
 C         3.209423        -0.655604         0.845808
 O         1.851119        -0.679767         1.082362
 H         5.243173        -1.651124        -0.755997
 H         4.245721        -1.803741        -2.131739
 H         5.152221        -0.233195        -1.971642
 H        -0.591423         0.727827         0.400373
 H        -0.285658         0.574389        -1.197204
 H        -0.338889        -0.866896        -0.305202
 H         2.247211         1.724612        -0.992146
 H         1.884487         2.286723         0.644165
 H         4.521406         1.310692         0.542662
 H         3.833810        -1.217935         1.502796
