19
Iteration:  1673charge 0 multiplicity 1
 C         4.628996        -1.080610        -1.402631
 C         3.499693        -0.427757        -0.641408
 O         2.268396        -0.056958        -1.255427
 C         1.421291         0.241142        -0.008452
 C         0.135705         0.743931        -0.611581
 C         2.472938         1.350435         0.723489
 C         3.544557         0.424772         0.659200
 C         2.995690        -1.042974         0.688551
 O         1.604333        -0.995625         0.687902
 H         4.853504        -2.082227        -1.184535
 H         4.126906        -1.086327        -2.346743
 H         5.529263        -0.521351        -1.500062
 H        -0.668800         1.029673         0.041705
 H         0.616871         1.561166        -1.107463
 H        -0.155697         0.061910        -1.378337
 H         2.668624         2.364733         0.095419
 H         2.281082         1.601968         1.808444
 H         4.400809         0.493630         1.268488
 H         3.669849        -1.845156         1.169345
