19
Iteration:  2187
 C         4.597081        -1.032355        -1.396773
 C         3.474740        -0.486295        -0.598668
 O         2.344424        -0.057855        -1.326916
 C         1.478865         0.272371        -0.190922
 C         0.017700         0.582043        -0.376347
 C         2.491412         1.319233         0.545928
 C         3.591138         0.382839         0.722840
 C         3.043305        -1.009510         0.702389
 O         1.555181        -0.838512         0.686015
 H         4.973920        -0.424128        -2.161560
 H         5.416366        -0.958869        -0.627635
 H         4.339878        -2.004434        -1.677819
 H        -0.391907         0.722244         0.687730
 H        -0.114769         1.518939        -1.129598
 H        -0.439334        -0.356501        -0.779465
 H         2.811356         2.064241        -0.226751
 H         2.255058         1.893888         1.456999
 H         4.537079         0.625566         1.185930
 H         3.563298        -1.830402         1.287885
