19
Iteration:  3488
 C         4.636400        -1.143492        -1.420001
 C         3.423367        -0.488739        -0.608363
 O         2.132223        -0.341447        -1.216837
 C         1.474926         0.228786        -0.058954
 C        -0.008240         0.193560        -0.360676
 C         2.396620         1.467129         0.230640
 C         3.655808         0.683558         0.320506
 C         3.196640        -0.730158         0.856769
 O         1.767016        -0.649025         0.992192
 H         5.526733        -0.869213        -0.825597
 H         4.522840        -2.260825        -1.376124
 H         4.536254        -0.474613        -2.341283
 H        -0.648854         0.441616         0.451548
 H        -0.278945         0.744083        -1.262802
 H        -0.325797        -0.828206        -0.457155
 H         2.305845         2.046066        -0.680037
 H         2.038092         2.084152         1.056856
 H         4.643830         1.141107         0.567395
 H         3.668230        -1.452356         1.620226
