19
Iteration:   387charge 0 multiplicity 1
 C         4.634854        -1.146517        -1.447817
 C         3.513941        -0.543411        -0.604873
 O         2.185261        -0.629486        -1.197640
 C         1.416625         0.133725        -0.207355
 C        -0.027376         0.041792        -0.227645
 C         2.229969         1.566152         0.117267
 C         3.595772         0.848184         0.285427
 C         3.287409        -0.510394         0.904267
 O         1.821795        -0.529133         1.045525
 H         4.250432        -1.127091        -2.459523
 H         5.403974        -0.407070        -1.352070
 H         4.978683        -2.098341        -1.087610
 H        -0.355421         0.440549         0.800736
 H        -0.670562         0.739991        -0.797888
 H        -0.341824        -1.062108        -0.300481
 H         2.263823         2.273771        -0.698524
 H         1.802771         1.867512         1.179458
 H         4.442515         1.541214         0.391114
 H         3.983900        -1.059191         1.602524
