19
Iteration:  4911charge 0 multiplicity 1
 C         4.466441        -1.243358        -1.369156
 C         3.491206        -0.408008        -0.628625
 O         2.198324        -0.420900        -1.196156
 C         1.455133         0.164025        -0.127417
 C        -0.042187        -0.026762        -0.324026
 C         2.280630         1.481255         0.126235
 C         3.622207         0.851501         0.251089
 C         3.275705        -0.472418         0.937527
 O         1.889207        -0.621123         1.077839
 H         5.178526        -1.757333        -0.676333
 H         4.138343        -2.072154        -2.021101
 H         5.053089        -0.528025        -2.109827
 H        -0.598670         0.431365         0.570055
 H        -0.435706         0.428359        -1.330494
 H        -0.155666        -1.147326        -0.234229
 H         2.119806         2.073358        -0.740700
 H         2.017322         2.095611         0.900466
 H         4.582058         1.319000         0.224631
 H         3.797944        -1.068474         1.606387
