19
Iteration:  2823
 C         4.607191        -1.017786        -1.504865
 C         3.465611        -0.506625        -0.610900
 O         2.218134        -0.176435        -1.244966
 C         1.473275         0.297947        -0.051235
 C         0.032244         0.460336        -0.577533
 C         2.458187         1.432126         0.474897
 C         3.633264         0.479047         0.571337
 C         3.068677        -0.952812         0.798198
 O         1.693367        -0.828457         0.966021
 H         4.825840        -0.111022        -2.164788
 H         5.534942        -1.162352        -0.953004
 H         4.154277        -1.972922        -1.934104
 H        -0.768866         0.660983         0.127466
 H        -0.076462         1.010921        -1.486101
 H        -0.177215        -0.527032        -1.045899
 H         2.581781         2.222137        -0.365015
 H         1.950003         1.826786         1.442263
 H         4.572034         0.705807         0.931296
 H         3.639001        -1.633213         1.394851
