19
Iteration:  4744charge 0 multiplicity 1
 C         4.559041        -1.204251        -1.300179
 C         3.497560        -0.478849        -0.654894
 O         2.134474        -0.365446        -1.145197
 C         1.455795         0.112920        -0.045434
 C        -0.045645         0.096436        -0.300768
 C         2.217081         1.478836         0.111931
 C         3.635328         0.879317         0.207057
 C         3.240645        -0.583192         0.829316
 O         1.912341        -0.682255         1.024762
 H         5.556178        -0.809881        -1.040265
 H         4.684058        -2.263309        -1.032003
 H         4.489516        -1.067690        -2.393134
 H        -0.427313         0.763051         0.459094
 H        -0.018823         0.622603        -1.256098
 H        -0.512595        -0.917788        -0.404480
 H         2.096593         2.071076        -0.712215
 H         1.930587         1.960750         0.992639
 H         4.620673         1.352652         0.468725
 H         3.797296        -1.310504         1.361844
