19
Iteration:  1754charge 0 multiplicity 1
 C         4.660023        -1.015109        -1.319787
 C         3.467379        -0.491439        -0.615650
 O         2.310687        -0.001031        -1.389522
 C         1.470350         0.258232        -0.096075
 C         0.065534         0.732509        -0.435993
 C         2.420184         1.306472         0.619371
 C         3.654591         0.341835         0.642838
 C         2.984846        -1.077710         0.679689
 O         1.579068        -0.944490         0.714972
 H         4.593137        -2.086964        -1.513981
 H         4.796197        -0.574438        -2.307325
 H         5.610746        -0.765140        -0.837411
 H        -0.487596         0.944644         0.501678
 H         0.072887         1.722746        -1.009058
 H        -0.420631        -0.054682        -1.040355
 H         2.632959         2.170235        -0.027230
 H         2.095137         1.764395         1.594424
 H         4.591046         0.539019         1.179531
 H         3.281822        -1.944387         1.223751
