19
Iteration:  1656
 C         4.559523        -1.035989        -1.375966
 C         3.500617        -0.403750        -0.596221
 O         2.302714         0.012260        -1.253032
 C         1.492554         0.231991        -0.095032
 C         0.134424         0.765602        -0.519471
 C         2.377374         1.254749         0.587196
 C         3.661981         0.352307         0.732141
 C         3.016521        -1.053793         0.691909
 O         1.582734        -0.976535         0.659989
 H         4.864307        -1.967021        -0.771987
 H         4.346667        -1.454585        -2.410759
 H         5.466717        -0.381393        -1.463245
 H        -0.422225         1.091564         0.385775
 H         0.268388         1.676787        -1.143333
 H        -0.458655         0.061315        -1.195733
 H         2.507055         1.973683        -0.148186
 H         1.970826         1.674854         1.497371
 H         4.674983         0.614663         1.126413
 H         3.376661        -1.947932         1.187783
