19
Iteration:   101
 C         4.624204        -1.088309        -1.345605
 C         3.505589        -0.372345        -0.629638
 O         2.082232        -0.589969        -1.090572
 C         1.451799         0.057575         0.015652
 C        -0.148958         0.044184        -0.169508
 C         2.156517         1.420198        -0.131916
 C         3.525723         0.951211         0.058459
 C         3.410182        -0.359635         0.895750
 O         2.020474        -0.736535         1.140175
 H         4.947362        -0.859386        -2.345384
 H         5.467182        -1.026485        -0.632996
 H         4.361405        -2.176150        -1.343331
 H        -0.709750         0.660826         0.539616
 H        -0.300660         0.377663        -1.168732
 H        -0.471180        -0.999197        -0.114448
 H         1.952879         1.702791        -1.210501
 H         2.011583         2.290943         0.428473
 H         4.380896         1.683380        -0.084560
 H         4.103353        -1.018338         1.509985
