19
Iteration:  3226
 C         4.558803        -1.175409        -1.482295
 C         3.504297        -0.435243        -0.623170
 O         2.248522        -0.398452        -1.215443
 C         1.468105         0.227661        -0.160368
 C        -0.085017         0.290273        -0.438747
 C         2.321416         1.421909         0.404785
 C         3.626859         0.707615         0.380737
 C         3.228801        -0.662164         0.863445
 O         1.760805        -0.682470         1.005801
 H         5.383448        -0.442838        -1.786229
 H         4.945546        -2.060353        -0.990147
 H         4.135321        -1.660664        -2.428685
 H        -0.475372         0.439711         0.567011
 H        -0.137106         0.806983        -1.422384
 H        -0.460395        -0.671439        -0.682441
 H         2.159891         2.309754        -0.161127
 H         2.069530         1.581705         1.405960
 H         4.593504         1.191967         0.662733
 H         3.840694        -1.441480         1.535271
