19
Iteration:  4305
 C         4.504197        -1.199178        -1.312941
 C         3.508408        -0.427615        -0.617457
 O         2.223255        -0.396650        -1.244419
 C         1.491576         0.089712        -0.122345
 C        -0.050343         0.128471        -0.239099
 C         2.243994         1.462025         0.139857
 C         3.620912         0.867194         0.287603
 C         3.242553        -0.522618         0.844431
 O         1.896036        -0.698991         1.011120
 H         4.907399        -2.062275        -0.709627
 H         3.938020        -1.761089        -2.137884
 H         5.323353        -0.779865        -1.792361
 H        -0.505170         0.575191         0.698686
 H        -0.347649         0.698244        -1.190188
 H        -0.422572        -0.984139        -0.157203
 H         2.018346         2.001535        -0.795664
 H         1.722421         2.164694         1.010688
 H         4.546011         1.425926         0.279730
 H         3.867812        -1.269478         1.444373
