19
Iteration:  2644
 C         4.654081        -1.104486        -1.370186
 C         3.456158        -0.436584        -0.665121
 O         2.303192        -0.176377        -1.328898
 C         1.438003         0.219287        -0.048800
 C         0.010698         0.505826        -0.404210
 C         2.339080         1.340614         0.513501
 C         3.651054         0.560570         0.498328
 C         3.140024        -0.872434         0.711378
 O         1.638353        -0.845426         0.875992
 H         5.316811        -0.376957        -1.754498
 H         5.168759        -1.719459        -0.597875
 H         4.601982        -1.638366        -2.244677
 H        -0.637574         0.874051         0.394832
 H        -0.179851         1.158879        -1.310720
 H        -0.488072        -0.394192        -0.696122
 H         2.479217         2.161077        -0.258182
 H         1.923878         1.802656         1.450650
 H         4.583041         0.881421         0.931444
 H         3.578309        -1.705572         1.184891
