19
Iteration:  2273
 C         4.510038        -1.006944        -1.523863
 C         3.482876        -0.496647        -0.555141
 O         2.315580        -0.056943        -1.190561
 C         1.503962         0.276823        -0.036350
 C         0.119027         0.475353        -0.557275
 C         2.442625         1.413220         0.521428
 C         3.629287         0.350674         0.673590
 C         3.002717        -0.986353         0.798835
 O         1.605268        -0.844529         0.746707
 H         5.455906        -0.572365        -1.209826
 H         4.486240        -2.140144        -1.775087
 H         4.497870        -0.573602        -2.521316
 H        -0.756383         0.888404        -0.002891
 H         0.280960         1.319597        -1.316092
 H        -0.116023        -0.431239        -1.117484
 H         2.574267         2.246812        -0.295291
 H         2.230163         2.020954         1.487390
 H         4.558015         0.376730         1.206300
 H         3.446943        -1.777344         1.471572
