19
Iteration:  3945
 C         4.544496        -1.069396        -1.497994
 C         3.496200        -0.560766        -0.565085
 O         2.242444        -0.464845        -1.186290
 C         1.487252         0.217999        -0.172594
 C        -0.010828         0.193739        -0.422321
 C         2.346872         1.499620         0.307101
 C         3.601922         0.702191         0.399867
 C         3.199545        -0.700000         0.919197
 O         1.744319        -0.610398         1.019221
 H         5.243440        -1.853266        -1.256356
 H         4.013434        -1.449750        -2.440884
 H         5.156083        -0.261550        -1.930377
 H        -0.487815         0.581827         0.435433
 H        -0.478159         0.755690        -1.234681
 H        -0.135144        -0.831338        -0.763789
 H         2.459773         2.297036        -0.333861
 H         1.946394         1.812978         1.290203
 H         4.460970         1.259974         0.385110
 H         3.731465        -1.261013         1.589976
