19
Iteration:  3967
 C         4.509907        -1.116823        -1.403242
 C         3.473799        -0.413830        -0.665373
 O         2.161268        -0.312313        -1.165300
 C         1.452427         0.164211        -0.002409
 C         0.024649         0.171600        -0.445295
 C         2.300283         1.441355         0.204637
 C         3.704444         0.712597         0.357952
 C         3.164913        -0.656218         0.872900
 O         1.835140        -0.751829         1.041299
 H         4.793022        -2.078603        -0.997587
 H         4.214989        -1.424000        -2.444234
 H         5.451265        -0.599329        -1.621812
 H        -0.615615         0.705698         0.209457
 H         0.015165         0.850754        -1.300124
 H        -0.191518        -0.773716        -0.941692
 H         2.209131         2.019981        -0.647090
 H         1.994175         2.026088         1.096607
 H         4.564514         1.162504         0.737111
 H         3.739719        -1.247434         1.550416
