19
Iteration:  3736
 C         4.650814        -1.100372        -1.398430
 C         3.487708        -0.464113        -0.572646
 O         2.152171        -0.342811        -1.236192
 C         1.455233         0.115769        -0.063411
 C        -0.039161         0.297303        -0.237572
 C         2.326493         1.423295         0.081767
 C         3.579808         0.713742         0.414359
 C         3.217964        -0.666637         0.854481
 O         1.806199        -0.781272         0.972649
 H         5.090081        -1.844925        -0.731041
 H         4.104701        -1.379996        -2.377790
 H         5.403570        -0.356828        -1.589386
 H        -0.478314         0.867206         0.622471
 H        -0.215454         0.891254        -1.244618
 H        -0.457154        -0.696050        -0.555580
 H         2.553559         1.750590        -0.968705
 H         2.021127         2.268212         0.696076
 H         4.491277         1.226075         0.582698
 H         3.688041        -1.323912         1.522764
