19
Iteration:  2614
 C         4.623181        -1.087379        -1.380826
 C         3.486385        -0.464647        -0.628741
 O         2.257900        -0.139466        -1.283395
 C         1.525114         0.301346        -0.264172
 C        -0.029024         0.367926        -0.347361
 C         2.417057         1.436175         0.514837
 C         3.607882         0.538769         0.545987
 C         3.074264        -0.880835         0.789935
 O         1.632467        -0.826353         0.774503
 H         5.427551        -0.353457        -1.535748
 H         5.134604        -1.931887        -0.776310
 H         4.493614        -1.588574        -2.365245
 H        -0.235251         0.760972         0.604302
 H        -0.412749         0.804390        -1.170914
 H        -0.469509        -0.614615        -0.435125
 H         2.870485         2.307999        -0.104741
 H         1.972106         1.592430         1.543278
 H         4.631814         0.821845         0.893202
 H         3.558405        -1.627102         1.398057
