19
Iteration:    29charge 0 multiplicity 1
 C         4.409057        -1.090837        -1.480787
 C         3.512291        -0.399793        -0.548297
 O         2.208123        -0.584684        -1.087822
 C         1.476153         0.107392        -0.065353
 C        -0.028939        -0.180068        -0.116693
 C         2.248106         1.489697        -0.306929
 C         3.528770         0.894307         0.234724
 C         3.307817        -0.421817         0.944313
 O         1.978491        -0.541294         1.193244
 H         5.330021        -0.512534        -1.724035
 H         4.732317        -2.133289        -1.232809
 H         3.859323        -1.080803        -2.457401
 H        -0.531843         0.174788         0.792388
 H        -0.458860         0.355245        -1.027424
 H        -0.167839        -1.261021        -0.260879
 H         2.342509         1.738156        -1.385142
 H         1.803862         2.484494         0.071892
 H         4.304121         1.567900         0.611955
 H         4.053172        -0.853235         1.687434
