19
Iteration:   298charge 0 multiplicity 1
 C         4.566051        -1.202695        -1.503087
 C         3.547775        -0.517649        -0.543881
 O         2.252480        -0.631894        -1.178671
 C         1.490955         0.107766        -0.101673
 C        -0.012833         0.058495        -0.308148
 C         2.116070         1.462062         0.125020
 C         3.553108         0.880822         0.112894
 C         3.253941        -0.335941         0.932065
 O         1.879812        -0.576595         1.167998
 H         5.495944        -0.733622        -1.481936
 H         4.744159        -2.230796        -1.275869
 H         4.216301        -1.117215        -2.519681
 H        -0.284352         0.837309         0.389200
 H        -0.111429         0.529217        -1.341323
 H        -0.516031        -0.897910        -0.203122
 H         1.759391         2.295363        -0.492041
 H         1.797209         1.583699         1.192798
 H         4.446085         1.506839         0.251083
 H         3.845184        -0.626719         1.777498
