19
Iteration:  2545charge 0 multiplicity 1
 C         4.517898        -0.942591        -1.494836
 C         3.503626        -0.476292        -0.569473
 O         2.218549        -0.341550        -1.197977
 C         1.485005         0.170533        -0.134611
 C         0.110084         0.557486        -0.592944
 C         2.353224         1.342978         0.590694
 C         3.613036         0.470577         0.536931
 C         3.157967        -0.903642         0.791790
 O         1.695071        -0.722279         0.871205
 H         4.683514        -0.291584        -2.377115
 H         5.509263        -1.059538        -1.040466
 H         4.375067        -1.950434        -1.924080
 H        -0.593792         0.638119         0.238334
 H         0.121924         1.334823        -1.399052
 H        -0.426996        -0.109000        -1.244205
 H         2.527123         2.388552         0.058112
 H         2.006558         1.339052         1.679627
 H         4.507659         1.003774         0.818287
 H         3.462889        -1.657698         1.567187
