19
Iteration:  1061charge 0 multiplicity 1
 C         4.636395        -1.061188        -1.415945
 C         3.561503        -0.482243        -0.565265
 O         2.342011        -0.059169        -1.354331
 C         1.459756         0.341113        -0.152722
 C        -0.063555         0.403846        -0.370713
 C         2.426590         1.372669         0.467434
 C         3.640916         0.479960         0.636417
 C         3.047313        -0.946411         0.760631
 O         1.607286        -0.828266         0.776314
 H         4.244362        -1.249062        -2.458345
 H         5.556871        -0.580799        -1.475671
 H         4.773512        -2.104850        -1.016324
 H        -0.563111         0.646908         0.587014
 H        -0.308668         1.066166        -1.283403
 H        -0.362826        -0.609966        -0.628881
 H         2.543211         2.157260        -0.294853
 H         2.174155         1.783648         1.506625
 H         4.486166         0.749047         1.238977
 H         3.443617        -1.695946         1.421656
