19
Iteration:  4644
 C         4.558670        -1.178906        -1.445026
 C         3.518900        -0.518794        -0.645772
 O         2.222421        -0.482772        -1.153388
 C         1.455766         0.177690        -0.120323
 C        -0.050366         0.131894        -0.382746
 C         2.201061         1.488771         0.134136
 C         3.542250         0.818462         0.219880
 C         3.250566        -0.520957         0.950895
 O         1.909746        -0.613759         1.172893
 H         5.065734        -2.065309        -0.889000
 H         4.014597        -1.525191        -2.414997
 H         5.351774        -0.612760        -1.860953
 H        -0.653124         0.486729         0.470786
 H        -0.337270         0.607931        -1.344531
 H        -0.137553        -0.937996        -0.563765
 H         2.117129         2.159680        -0.624641
 H         1.947773         1.750870         1.152140
 H         4.477838         1.323628         0.385702
 H         4.003004        -1.166731         1.532447
