19
Iteration:  3046
 C         4.667955        -1.106949        -1.416095
 C         3.510024        -0.452720        -0.620354
 O         2.187049        -0.220140        -1.262009
 C         1.477648         0.186141        -0.123475
 C         0.043811         0.373637        -0.324747
 C         2.377557         1.529842         0.324522
 C         3.542023         0.571802         0.480622
 C         3.100639        -0.830297         0.771015
 O         1.731071        -0.845680         0.878325
 H         4.500959        -2.194832        -1.269346
 H         4.640592        -0.771024        -2.535404
 H         5.447873        -0.970826        -0.655596
 H        -0.464852         0.600181         0.624536
 H        -0.188219         1.184874        -0.982920
 H        -0.397530        -0.582386        -0.603411
 H         2.479710         2.253953        -0.469707
 H         2.214107         2.068456         1.266884
 H         4.451893         0.983264         0.846736
 H         3.669654        -1.528464         1.487962
