19
Iteration:  2933charge 0 multiplicity 1
 C         4.632921        -1.102024        -1.393505
 C         3.569599        -0.449060        -0.608736
 O         2.168930        -0.200499        -1.286078
 C         1.468886         0.291176        -0.100537
 C         0.011949         0.354113        -0.426939
 C         2.370102         1.349886         0.496273
 C         3.712424         0.552464         0.470735
 C         3.054123        -0.857804         0.737622
 O         1.656192        -0.749924         0.853980
 H         5.663105        -0.933126        -0.947292
 H         4.556650        -2.196503        -1.517445
 H         4.680726        -0.825055        -2.526060
 H        -0.579234         0.797640         0.355214
 H        -0.034747         1.205909        -1.128555
 H        -0.308650        -0.657371        -0.610691
 H         2.352755         2.401692        -0.016044
 H         1.980552         1.545079         1.596443
 H         4.717875         1.010113         0.843657
 H         3.605607        -1.555609         1.434904
