19
Iteration:  2622
 C         4.683135        -1.106716        -1.342910
 C         3.496553        -0.484608        -0.580169
 O         2.222308        -0.122105        -1.315046
 C         1.497852         0.338041        -0.209594
 C         0.031830         0.331740        -0.327866
 C         2.421492         1.392973         0.509287
 C         3.584762         0.499555         0.467870
 C         3.063312        -0.897101         0.779033
 O         1.668283        -0.787033         0.750140
 H         5.410612        -0.398010        -1.666804
 H         5.099856        -1.894695        -0.695248
 H         4.474805        -1.451982        -2.315388
 H        -0.420155         0.903422         0.486763
 H        -0.370048         1.031882        -1.127328
 H        -0.534955        -0.549970        -0.398024
 H         2.379113         2.455184         0.090678
 H         2.001765         1.541714         1.550341
 H         4.524283         0.843659         0.786211
 H         3.519523        -1.570798         1.442315
