19
Iteration:  4154
 C         4.591095        -1.189458        -1.343447
 C         3.506069        -0.416775        -0.669737
 O         2.164745        -0.352875        -1.262586
 C         1.447057         0.179975        -0.100815
 C        -0.039170         0.074611        -0.294793
 C         2.304687         1.514627         0.209272
 C         3.594184         0.728198         0.262221
 C         3.290767        -0.652144         0.854607
 O         1.765713        -0.620824         1.050608
 H         5.083247        -0.648051        -2.193343
 H         5.327320        -1.584797        -0.515662
 H         4.239770        -2.165682        -1.709099
 H        -0.454955         0.555555         0.561791
 H        -0.406193         0.529988        -1.174381
 H        -0.298339        -0.925942        -0.491926
 H         2.374473         2.272567        -0.502117
 H         2.144849         2.003512         1.165078
 H         4.572241         1.142726         0.450041
 H         3.873437        -1.212652         1.469342
