19
Iteration:   130
 C         4.597576        -1.149863        -1.451225
 C         3.549949        -0.495605        -0.535594
 O         2.263989        -0.644604        -1.196698
 C         1.496304         0.101711        -0.227981
 C        -0.001778        -0.075095        -0.014638
 C         2.079476         1.464681        -0.050253
 C         3.507338         0.901584         0.175249
 C         3.277988        -0.422509         0.918813
 O         1.882590        -0.403232         1.070598
 H         4.228659        -1.114777        -2.486196
 H         5.538894        -0.658786        -1.438329
 H         4.797821        -2.175731        -1.222183
 H        -0.364477         0.585862         0.809115
 H        -0.604481         0.119310        -0.908645
 H        -0.184244        -1.126001         0.317814
 H         1.967588         2.156033        -0.875512
 H         1.733777         1.824506         0.942854
 H         4.392533         1.558083         0.146446
 H         3.757511        -1.047669         1.637781
