19
Iteration:   625
 C         4.561132        -1.103618        -1.372643
 C         3.521391        -0.468626        -0.609725
 O         2.193672        -0.444406        -1.261379
 C         1.437383         0.155975        -0.144660
 C        -0.015960         0.217734        -0.349845
 C         2.258510         1.384872         0.265994
 C         3.629102         0.728283         0.354273
 C         3.297878        -0.607344         0.900650
 O         1.800730        -0.624142         0.988352
 H         4.227848        -1.061833        -2.468005
 H         5.495286        -0.476708        -1.518746
 H         4.907172        -2.233607        -1.190323
 H        -0.697142         0.556974         0.445817
 H        -0.364700         0.875294        -1.127198
 H        -0.307713        -0.817933        -0.671619
 H         2.123818         2.244006        -0.319548
 H         1.891754         1.614604         1.321088
 H         4.554286         1.364493         0.506896
 H         3.672838        -1.405640         1.540241
