19
Iteration:  2882charge 0 multiplicity 1
 C         4.644343        -1.043489        -1.468471
 C         3.536949        -0.412217        -0.588913
 O         2.257149        -0.205289        -1.181662
 C         1.504839         0.153113        -0.142473
 C         0.015110         0.534311        -0.412994
 C         2.361115         1.385523         0.335465
 C         3.601030         0.565141         0.560183
 C         3.071646        -0.887258         0.841131
 O         1.655325        -0.899513         0.833355
 H         5.526650        -0.458876        -1.646461
 H         4.934831        -2.078571        -1.081336
 H         4.329622        -1.175493        -2.521429
 H        -0.434146         0.799813         0.566203
 H        -0.058782         1.524676        -0.881517
 H        -0.491060        -0.373148        -0.648030
 H         2.385677         2.053857        -0.470977
 H         1.899528         1.907282         1.115618
 H         4.599097         0.897728         0.999749
 H         3.569180        -1.717334         1.329815
