19
Iteration:  1697
 C         4.553197        -1.015528        -1.501244
 C         3.496544        -0.526001        -0.598128
 O         2.343403        -0.018523        -1.207027
 C         1.510554         0.333187        -0.191996
 C         0.144283         0.658835        -0.626700
 C         2.376834         1.193496         0.673826
 C         3.667879         0.336826         0.719012
 C         2.975335        -1.039108         0.766644
 O         1.584525        -0.786292         0.749043
 H         4.754998        -2.010393        -1.374548
 H         4.146431        -0.873526        -2.507938
 H         5.435417        -0.458967        -1.382040
 H        -0.427598         0.646506         0.297619
 H         0.128742         1.574529        -1.116899
 H        -0.181439        -0.169725        -1.304400
 H         2.603842         2.325430         0.474760
 H         1.760146         1.054025         1.628673
 H         4.693015         0.640093         0.977344
 H         3.225741        -1.898500         1.410043
