19
Iteration:  3700charge 0 multiplicity 1
 C         4.589367        -1.159486        -1.420113
 C         3.536173        -0.520323        -0.603370
 O         2.187186        -0.374427        -1.229988
 C         1.453628         0.218871        -0.189076
 C         0.019130         0.157180        -0.345493
 C         2.272622         1.416039         0.310000
 C         3.628761         0.747075         0.301968
 C         3.152090        -0.656025         0.904405
 O         1.801462        -0.571425         0.989634
 H         5.010012        -2.182330        -1.114051
 H         4.105625        -1.576617        -2.411107
 H         5.520348        -0.468522        -1.740206
 H        -0.493367         0.418597         0.596599
 H        -0.342312         0.714946        -1.154963
 H        -0.283984        -0.861392        -0.221893
 H         2.460934         2.320858        -0.281262
 H         1.831157         1.638980         1.229780
 H         4.615990         1.238184         0.407808
 H         3.619203        -1.292040         1.710739
