19
Iteration:  3587charge 0 multiplicity 1
 C         4.599533        -1.045962        -1.349834
 C         3.437724        -0.464721        -0.606898
 O         2.138595        -0.363885        -1.264564
 C         1.448005         0.152013        -0.038656
 C        -0.005254         0.270732        -0.305439
 C         2.341631         1.482580         0.118694
 C         3.621391         0.621044         0.315498
 C         3.229237        -0.787151         0.828486
 O         1.822022        -0.684651         1.032725
 H         5.317257        -1.006696        -0.477712
 H         4.486723        -2.122158        -1.402383
 H         4.833500        -0.293657        -2.245838
 H        -0.595496         0.678606         0.469138
 H        -0.232828         0.869424        -1.187333
 H        -0.363234        -0.721080        -0.527665
 H         2.360355         2.008905        -0.807980
 H         2.132241         2.242923         0.926778
 H         4.588978         0.904717         0.501740
 H         3.716823        -1.280686         1.595454
