19
Iteration:  1752
 C         4.660839        -1.016731        -1.321578
 C         3.503351        -0.503094        -0.600055
 O         2.292258         0.013062        -1.372784
 C         1.459552         0.271915        -0.081325
 C         0.063653         0.724332        -0.435794
 C         2.429989         1.302624         0.604889
 C         3.634093         0.330156         0.635792
 C         2.981774        -1.084537         0.692845
 O         1.585010        -0.940325         0.692084
 H         4.595854        -2.024730        -1.479846
 H         4.732133        -0.573614        -2.321966
 H         5.572912        -0.751829        -0.875172
 H        -0.475424         0.947209         0.470172
 H         0.099730         1.645716        -0.964471
 H        -0.360930        -0.071011        -1.072273
 H         2.676374         2.186441        -0.144925
 H         2.145051         1.825133         1.606280
 H         4.553558         0.548240         1.224838
 H         3.301403        -1.946950         1.176146
