19
Iteration:  1794charge 0 multiplicity 1
 C         4.655670        -1.066706        -1.439489
 C         3.510789        -0.516324        -0.617664
 O         2.287620        -0.097205        -1.310976
 C         1.480475         0.292290        -0.069348
 C         0.090755         0.738099        -0.486539
 C         2.396945         1.329252         0.701064
 C         3.627689         0.469085         0.678878
 C         3.011556        -1.029143         0.736835
 O         1.601384        -0.950561         0.632001
 H         4.203758        -1.614125        -2.248100
 H         5.245902        -0.206713        -1.872660
 H         5.216569        -1.757220        -0.846309
 H        -0.436860         1.096489         0.378161
 H         0.145616         1.490912        -1.189411
 H        -0.418519        -0.125022        -0.940589
 H         2.331263         2.281464         0.036814
 H         1.859740         1.441887         1.683743
 H         4.647394         0.553257         1.092977
 H         3.375378        -1.750107         1.389978
