19
Iteration:  4281
 C         4.565655        -1.191022        -1.398673
 C         3.527661        -0.443329        -0.669476
 O         2.166720        -0.366884        -1.180062
 C         1.481386         0.172088        -0.052888
 C        -0.055707         0.086326        -0.238794
 C         2.291967         1.524262         0.023157
 C         3.549591         0.778642         0.318122
 C         3.269607        -0.603041         0.878962
 O         1.864924        -0.691290         1.041682
 H         5.170695        -1.733679        -0.666590
 H         4.136880        -1.986234        -1.995451
 H         5.222209        -0.675383        -2.078836
 H        -0.696373         0.490501         0.592819
 H        -0.187883         0.650378        -1.190959
 H        -0.341748        -1.049372        -0.339321
 H         2.195778         2.094662        -0.921483
 H         1.877423         2.162842         0.852738
 H         4.419863         1.331821         0.666118
 H         3.821778        -0.988967         1.650464
