19
Iteration:  1609charge 0 multiplicity 1
 C         4.690555        -0.969130        -1.462961
 C         3.479297        -0.546672        -0.561979
 O         2.368997        -0.020312        -1.275642
 C         1.514367         0.399637        -0.145583
 C         0.065850         0.658931        -0.485653
 C         2.539057         1.243668         0.682150
 C         3.630164         0.275157         0.702566
 C         2.886762        -1.053737         0.762931
 O         1.464279        -0.832334         0.620463
 H         5.566280        -1.024972        -0.891523
 H         4.550581        -1.999223        -1.870433
 H         4.828641        -0.276602        -2.274577
 H        -0.449205         0.970306         0.426048
 H        -0.186977         1.341136        -1.275138
 H        -0.288539        -0.307141        -0.848118
 H         2.921411         2.089108        -0.007993
 H         2.127919         1.582477         1.667771
 H         4.500033         0.541894         1.252875
 H         3.101322        -2.116466         1.074145
