19
Iteration:  3091charge 0 multiplicity 1
 C         4.557156        -1.145289        -1.466410
 C         3.520031        -0.424688        -0.582798
 O         2.207637        -0.270406        -1.231953
 C         1.503370         0.243498        -0.146315
 C         0.063561         0.289057        -0.464943
 C         2.344242         1.463752         0.405484
 C         3.597278         0.644339         0.427794
 C         3.140155        -0.756868         0.871707
 O         1.744149        -0.803063         0.962802
 H         4.074541        -1.614187        -2.380249
 H         5.150591        -0.328826        -2.093399
 H         4.974601        -2.051604        -1.042098
 H        -0.499460         0.571138         0.451161
 H        -0.164451         1.059384        -1.173122
 H        -0.513213        -0.642381        -0.745315
 H         2.427834         2.309854        -0.245286
 H         1.921788         1.761852         1.335171
 H         4.581341         1.047276         0.856294
 H         3.793108        -1.452503         1.488236
