19
Iteration:   147charge 0 multiplicity 1
 C         4.599122        -1.127028        -1.497767
 C         3.521948        -0.480013        -0.595610
 O         2.144064        -0.642066        -1.098382
 C         1.409703         0.180507        -0.262207
 C        -0.117432        -0.211634        -0.209804
 C         2.241592         1.487790         0.031199
 C         3.635100         0.862812         0.131421
 C         3.308831        -0.379944         0.994924
 O         1.898064        -0.412744         1.152823
 H         4.067200        -1.502451        -2.408272
 H         5.411509        -0.359179        -1.750403
 H         5.078815        -2.052206        -1.020515
 H        -0.405273         0.311658         0.685116
 H        -0.799765        -0.008386        -1.079575
 H        -0.043660        -1.249062         0.059804
 H         2.269450         2.309459        -0.707514
 H         1.839728         1.969413         0.947434
 H         4.515510         1.488670         0.139991
 H         3.891649        -0.766780         1.839234
