19
Iteration:  1738
 C         4.690808        -1.026728        -1.449105
 C         3.503530        -0.489977        -0.540738
 O         2.257981         0.025694        -1.156084
 C         1.527782         0.349305        -0.073055
 C         0.092183         0.639262        -0.442012
 C         2.512341         1.306883         0.501423
 C         3.554259         0.305182         0.748576
 C         2.957402        -1.061232         0.702719
 O         1.537526        -0.906035         0.567725
 H         4.746388        -2.147828        -1.478354
 H         4.525198        -0.624605        -2.456225
 H         5.668846        -0.671549        -1.074985
 H        -0.649491         0.674225         0.346127
 H         0.092221         1.524086        -1.025544
 H        -0.355951        -0.125233        -1.068814
 H         2.745718         2.039608        -0.400233
 H         2.228480         1.814618         1.449715
 H         4.510194         0.559769         1.174793
 H         3.375051        -1.979813         1.246198
