19
Iteration:  4091
 C         4.546720        -1.096402        -1.531827
 C         3.573909        -0.595264        -0.519281
 O         2.213684        -0.534497        -1.190512
 C         1.494787         0.149728        -0.153399
 C        -0.004815         0.276167        -0.424734
 C         2.217640         1.393487         0.255918
 C         3.598057         0.731744         0.325069
 C         3.279396        -0.540971         0.955429
 O         1.772029        -0.599641         1.041721
 H         4.140194        -1.173344        -2.594601
 H         5.425011        -0.289252        -1.622097
 H         4.968990        -2.122331        -1.429413
 H        -0.363602         0.737872         0.586248
 H        -0.291578         1.038616        -1.223122
 H        -0.510355        -0.715890        -0.532131
 H         2.086963         2.245135        -0.522665
 H         1.750299         1.636382         1.180656
 H         4.479123         1.242386         0.672311
 H         3.762622        -1.032431         1.662297
