19
Iteration:  2702
 C         4.589150        -0.984759        -1.626277
 C         3.567559        -0.519210        -0.541842
 O         2.277165        -0.217880        -1.214256
 C         1.495963         0.222753        -0.189465
 C         0.043077         0.472570        -0.556714
 C         2.406232         1.371667         0.488151
 C         3.640823         0.488912         0.557819
 C         3.023188        -0.917669         0.909411
 O         1.623546        -0.762885         0.921334
 H         4.372474        -0.266525        -2.408132
 H         5.608080        -0.648071        -1.397051
 H         4.447371        -2.055596        -1.583548
 H        -0.482693         0.546694         0.377935
 H        -0.048020         1.362939        -1.115316
 H        -0.274438        -0.439000        -1.113487
 H         2.640752         2.347538        -0.103836
 H         1.833516         1.601031         1.467072
 H         4.584063         0.570894         1.116784
 H         3.397299        -1.692041         1.629259
