19
Iteration:  1952charge 0 multiplicity 1
 C         4.603227        -0.992954        -1.442634
 C         3.435676        -0.443602        -0.598014
 O         2.260707        -0.052437        -1.319951
 C         1.504253         0.396738        -0.098045
 C         0.127327         0.560221        -0.545268
 C         2.538948         1.303340         0.633063
 C         3.627810         0.294853         0.698848
 C         2.970910        -1.055360         0.730795
 O         1.546316        -0.805755         0.769147
 H         4.487335        -2.043347        -1.786647
 H         4.848579        -0.476618        -2.274531
 H         5.480553        -1.082503        -0.811608
 H        -0.532875         0.613518         0.322136
 H        -0.105980         1.306364        -1.316401
 H         0.041516        -0.415598        -1.035386
 H         2.698863         2.149193        -0.055771
 H         2.312926         1.577447         1.708445
 H         4.590683         0.609330         1.150420
 H         3.241576        -2.009191         1.038825
