19
Iteration:   534charge 0 multiplicity 1
 C         4.647712        -1.103155        -1.436128
 C         3.514851        -0.527967        -0.619126
 O         2.201482        -0.560899        -1.148969
 C         1.440068         0.129583        -0.137256
 C        -0.063620         0.284583        -0.351673
 C         2.197332         1.374279         0.290488
 C         3.568375         0.790283         0.204026
 C         3.264269        -0.542499         0.887356
 O         1.886853        -0.659360         1.013791
 H         5.529004        -0.663939        -0.878258
 H         4.444806        -2.185903        -1.611119
 H         4.622447        -0.663549        -2.483822
 H        -0.598390         0.781603         0.410659
 H        -0.333116         0.903897        -1.228660
 H        -0.426105        -0.685246        -0.511654
 H         2.001413         2.176500        -0.552900
 H         2.041176         1.656773         1.290804
 H         4.451496         1.405340         0.445146
 H         3.714983        -0.823427         1.909242
