19
Iteration:  3759charge 0 multiplicity 1
 C         4.636735        -1.053324        -1.421871
 C         3.472760        -0.496106        -0.603978
 O         2.207813        -0.502022        -1.205274
 C         1.467971         0.132758        -0.097628
 C        -0.000930         0.383070        -0.344515
 C         2.231689         1.440189         0.202640
 C         3.613052         0.720183         0.279034
 C         3.204738        -0.694163         0.839933
 O         1.809451        -0.733382         1.052683
 H         5.217933        -1.635869        -0.693755
 H         4.196346        -1.537592        -2.307647
 H         5.285009        -0.257438        -1.693856
 H        -0.381396         0.854951         0.589718
 H        -0.232791         1.120661        -1.230126
 H        -0.543702        -0.570873        -0.648851
 H         2.204718         2.213660        -0.581141
 H         1.800684         1.814687         1.182691
 H         4.618181         1.129460         0.634895
 H         3.731310        -1.316886         1.624104
