19
Iteration:   364charge 0 multiplicity 1
 C         4.673244        -1.031644        -1.398436
 C         3.478844        -0.499537        -0.625415
 O         2.165457        -0.534251        -1.151576
 C         1.415786         0.167689        -0.118536
 C        -0.098521        -0.055450        -0.195151
 C         2.299018         1.494062         0.031363
 C         3.672516         0.740887         0.152174
 C         3.195692        -0.551435         0.912781
 O         1.836597        -0.493099         1.062770
 H         4.641897        -0.585530        -2.355828
 H         5.610164        -0.930405        -0.893204
 H         4.386157        -2.066799        -1.487313
 H        -0.625975         0.383941         0.696164
 H        -0.560804         0.524569        -1.054727
 H        -0.173636        -1.186743        -0.297304
 H         2.242978         2.095676        -0.860372
 H         2.098478         1.968743         1.062732
 H         4.643575         1.270961         0.354144
 H         3.749010        -0.959867         1.829332
