19
Iteration:  1839
 C         4.540345        -0.978352        -1.578237
 C         3.495285        -0.553108        -0.577208
 O         2.354648        -0.085056        -1.255567
 C         1.531564         0.395742        -0.166458
 C         0.104569         0.483258        -0.556350
 C         2.470488         1.386988         0.695807
 C         3.622531         0.313406         0.787460
 C         2.945570        -1.022002         0.774990
 O         1.547862        -0.773820         0.718055
 H         4.105442        -0.975665        -2.526648
 H         5.338088        -0.208323        -1.601913
 H         4.906700        -1.954056        -1.379387
 H        -0.611118         0.697922         0.196147
 H         0.010855         1.142355        -1.368624
 H        -0.087376        -0.474936        -0.987585
 H         3.002439         2.263035         0.169003
 H         2.130479         1.551109         1.767332
 H         4.611268         0.552773         1.129238
 H         3.306072        -1.910238         1.315972
