19
Iteration:  3065charge 0 multiplicity 1
 C         4.557338        -1.162959        -1.429197
 C         3.519913        -0.461312        -0.579897
 O         2.294027        -0.235254        -1.302017
 C         1.475212         0.236585        -0.122458
 C        -0.027416         0.357673        -0.306426
 C         2.311045         1.362321         0.338334
 C         3.695898         0.656412         0.531782
 C         3.148468        -0.757893         0.815984
 O         1.712710        -0.756815         0.836605
 H         4.355976        -2.051279        -1.986249
 H         4.784201        -0.468716        -2.202136
 H         5.464699        -1.534954        -0.815567
 H        -0.483916         0.447366         0.671029
 H        -0.459758         1.017304        -1.082215
 H        -0.430146        -0.586833        -0.599771
 H         2.348626         2.206545        -0.420546
 H         1.676378         1.755076         1.262958
 H         4.591459         1.070481         0.845182
 H         3.567134        -1.498334         1.467883
