19
Iteration:  2909charge 0 multiplicity 1
 C         4.623615        -1.082911        -1.333538
 C         3.443750        -0.499954        -0.651190
 O         2.278286        -0.205756        -1.358368
 C         1.476403         0.252063        -0.100576
 C        -0.013719         0.496856        -0.398805
 C         2.369873         1.375211         0.473053
 C         3.566704         0.562359         0.494323
 C         3.130067        -0.856771         0.788053
 O         1.736418        -0.854069         0.832235
 H         5.635899        -0.588655        -1.147202
 H         4.813248        -2.146130        -1.154756
 H         4.553614        -1.169133        -2.433678
 H        -0.526406         0.805928         0.560278
 H        -0.236571         1.444048        -0.927381
 H        -0.443467        -0.533299        -0.564339
 H         2.386436         2.336096        -0.167974
 H         1.915390         1.692920         1.489786
 H         4.445232         1.048758         0.862445
 H         3.742946        -1.649339         1.310807
