19
Iteration:   384
 C         4.624458        -1.147309        -1.449317
 C         3.543046        -0.537891        -0.604275
 O         2.188221        -0.640881        -1.191938
 C         1.417609         0.148934        -0.214330
 C        -0.047185         0.022294        -0.214884
 C         2.274357         1.568660         0.118844
 C         3.579375         0.842078         0.271508
 C         3.273254        -0.497704         0.890420
 O         1.798740        -0.520058         1.059108
 H         4.356018        -0.980140        -2.471704
 H         5.419109        -0.419018        -1.260142
 H         5.046613        -2.132211        -1.140916
 H        -0.389069         0.355205         0.777340
 H        -0.788177         0.647740        -0.812109
 H        -0.386985        -1.017437        -0.258411
 H         2.274045         2.395316        -0.615456
 H         1.842067         1.829804         1.066127
 H         4.532082         1.466441         0.408480
 H         4.008065        -1.113213         1.532263
