19
Iteration:  4898charge 0 multiplicity 1
 C         4.523403        -1.165257        -1.356748
 C         3.514534        -0.485404        -0.549194
 O         2.223258        -0.441509        -1.141984
 C         1.453405         0.126425        -0.081375
 C        -0.070300         0.023740        -0.267790
 C         2.220862         1.546473        -0.020807
 C         3.625775         0.830848         0.217673
 C         3.286031        -0.541072         0.838787
 O         1.871445        -0.656102         1.073282
 H         5.225899        -1.724280        -0.692054
 H         3.872688        -1.771860        -1.971483
 H         5.230159        -0.484891        -2.042511
 H        -0.519890         0.579400         0.600920
 H        -0.359614         0.650596        -1.194037
 H        -0.521026        -0.982861        -0.351617
 H         2.250307         2.136927        -0.882359
 H         1.895271         2.114629         0.838560
 H         4.406201         1.364055         0.638229
 H         4.048671        -1.100080         1.471495
