19
Iteration:  4182charge 0 multiplicity 1
 C         4.585197        -1.163065        -1.440019
 C         3.511855        -0.550027        -0.561155
 O         2.186650        -0.494844        -1.244949
 C         1.462928         0.164616        -0.152222
 C        -0.027211         0.177003        -0.251752
 C         2.266166         1.477655         0.150810
 C         3.570797         0.821696         0.329291
 C         3.285522        -0.576504         0.920416
 O         1.785835        -0.629678         0.997473
 H         5.290625        -0.413502        -1.795415
 H         5.178952        -1.887150        -0.976094
 H         4.185503        -1.656003        -2.353685
 H        -0.432658         0.695025         0.666435
 H        -0.294554         0.758646        -1.199537
 H        -0.360226        -0.918881        -0.457499
 H         2.301389         2.438073        -0.480099
 H         1.987838         1.876297         1.184960
 H         4.540776         1.375996         0.419094
 H         3.861030        -1.245834         1.684855
