19
Iteration:  4377charge 0 multiplicity 1
 C         4.530316        -1.012027        -1.523760
 C         3.478463        -0.532863        -0.545431
 O         2.144981        -0.576503        -1.093975
 C         1.461404         0.148923        -0.085566
 C         0.003264         0.158441        -0.331454
 C         2.317081         1.439391        -0.011593
 C         3.628700         0.834919         0.328877
 C         3.216086        -0.589677         0.937211
 O         1.828675        -0.640263         1.114248
 H         4.818196        -2.094036        -1.550681
 H         4.258693        -0.725416        -2.544975
 H         5.646862        -0.561923        -1.413951
 H        -0.519062         0.570415         0.504920
 H        -0.107512         0.778791        -1.197185
 H        -0.264304        -0.882830        -0.362907
 H         2.367164         1.967630        -1.017384
 H         1.799632         2.131144         0.601507
 H         4.620109         1.273077         0.475114
 H         3.857904        -1.110714         1.654445
