19
Iteration:   238
 C         4.681266        -1.130683        -1.334029
 C         3.507664        -0.534803        -0.621425
 O         2.149473        -0.514264        -1.155086
 C         1.440624         0.177652        -0.169530
 C        -0.010698        -0.047687        -0.120653
 C         2.193919         1.518189        -0.110603
 C         3.540066         0.809814         0.099072
 C         3.237331        -0.489776         0.921996
 O         1.882417        -0.550743         1.125921
 H         5.139247        -1.951250        -0.671435
 H         4.331249        -1.526138        -2.322669
 H         5.401552        -0.295473        -1.497769
 H        -0.312203         0.430506         0.844881
 H        -0.619908         0.408566        -0.870931
 H        -0.337682        -1.112791        -0.050167
 H         2.128169         2.136708        -1.022124
 H         1.921512         2.175658         0.748225
 H         4.477424         1.364319         0.362366
 H         3.961880        -0.972212         1.646086
