19
Iteration:    88
 C         4.639647        -1.121828        -1.281222
 C         3.438508        -0.410459        -0.672723
 O         2.055920        -0.629564        -1.022627
 C         1.376233         0.064847         0.043466
 C        -0.103114         0.048697        -0.281462
 C         2.065571         1.453566        -0.051781
 C         3.569247         0.941503         0.003932
 C         3.449440        -0.437333         0.814196
 O         2.123844        -0.625050         1.180218
 H         5.047421        -0.432763        -1.973474
 H         5.403718        -1.309939        -0.585433
 H         4.365628        -2.016030        -1.766834
 H        -0.762206         0.584409         0.425398
 H        -0.158809         0.567063        -1.216429
 H        -0.512991        -0.968227        -0.432564
 H         1.908082         1.830866        -1.072892
 H         1.621429         2.003316         0.751911
 H         4.472671         1.557698        -0.221606
 H         4.201759        -0.964406         1.371390
