19
Iteration:  2246charge 0 multiplicity 1
 C         4.596389        -0.993537        -1.474212
 C         3.527166        -0.467792        -0.565081
 O         2.226375        -0.175455        -1.303795
 C         1.531803         0.302007        -0.224460
 C         0.077319         0.636086        -0.579621
 C         2.360450         1.300211         0.644318
 C         3.699667         0.390461         0.619896
 C         3.052753        -1.013243         0.824813
 O         1.589597        -0.805519         0.875005
 H         5.501196        -0.319180        -1.510340
 H         4.744792        -2.011063        -1.319417
 H         4.347537        -1.020181        -2.574270
 H        -0.556035         0.929374         0.230871
 H         0.102765         1.429563        -1.295382
 H        -0.249453        -0.258007        -1.106745
 H         2.398987         2.296566         0.356281
 H         1.928949         1.290435         1.607119
 H         4.758492         0.581291         0.899305
 H         3.498295        -1.825091         1.301256
