19
Iteration:  2675charge 0 multiplicity 1
 C         4.527167        -0.990674        -1.497276
 C         3.503642        -0.489826        -0.532227
 O         2.267899        -0.274167        -1.248981
 C         1.492578         0.227461        -0.106546
 C         0.120200         0.561814        -0.478829
 C         2.329831         1.347708         0.448975
 C         3.619340         0.561978         0.587401
 C         3.139742        -0.892356         0.872878
 O         1.672970        -0.881771         0.795858
 H         4.724087        -0.151854        -2.218468
 H         5.501316        -1.201253        -1.023194
 H         4.134617        -1.897663        -1.997788
 H        -0.671796         0.835021         0.297180
 H         0.053578         1.523300        -1.145140
 H        -0.244322        -0.394808        -0.910400
 H         2.460708         2.096997        -0.302105
 H         1.780886         1.827071         1.226282
 H         4.578145         0.841806         0.973401
 H         3.522834        -1.656158         1.494571
