19
Iteration:  4260
 C         4.561230        -1.131199        -1.417487
 C         3.480498        -0.489088        -0.594093
 O         2.197402        -0.527430        -1.193352
 C         1.471611         0.192721        -0.115670
 C        -0.033377         0.101090        -0.331426
 C         2.264921         1.454676         0.173250
 C         3.659982         0.785831         0.224505
 C         3.282298        -0.580433         0.906999
 O         1.775905        -0.566183         1.075848
 H         5.568494        -1.219843        -0.986995
 H         4.215997        -2.047954        -1.954026
 H         4.657494        -0.386959        -2.185811
 H        -0.464235         0.478601         0.644009
 H        -0.327610         0.759369        -1.177297
 H        -0.331794        -1.036875        -0.314123
 H         2.226233         2.211347        -0.684459
 H         1.974262         1.948093         1.213314
 H         4.610531         1.306886         0.350898
 H         3.736001        -1.268806         1.503379
