19
Iteration:  4683charge 0 multiplicity 1
 C         4.596063        -0.992835        -1.512670
 C         3.479955        -0.521897        -0.532634
 O         2.192446        -0.618786        -1.127149
 C         1.467838         0.184916        -0.135098
 C         0.031164         0.225139        -0.287479
 C         2.265657         1.458204        -0.064823
 C         3.556338         0.685743         0.283190
 C         3.231918        -0.547471         0.981767
 O         1.835587        -0.677811         1.151419
 H         5.393137        -1.496983        -0.979669
 H         4.007244        -1.505656        -2.268296
 H         5.024717        -0.061055        -2.008112
 H        -0.574626         0.554234         0.558890
 H        -0.308560         0.913617        -1.084570
 H        -0.379659        -0.778106        -0.451920
 H         2.363782         2.063168        -1.107891
 H         1.796664         2.202458         0.685913
 H         4.512562         1.266664         0.396743
 H         3.855310        -1.077605         1.773721
