19
Iteration:  3475charge 0 multiplicity 1
 C         4.601399        -1.070679        -1.360478
 C         3.520325        -0.556757        -0.604478
 O         2.165042        -0.403872        -1.228149
 C         1.461359         0.221483        -0.184863
 C        -0.040823         0.230019        -0.291551
 C         2.300967         1.459487         0.190720
 C         3.674645         0.651989         0.307825
 C         3.144136        -0.668398         0.831713
 O         1.770583        -0.661959         1.042470
 H         5.546478        -1.065247        -0.851188
 H         4.456263        -2.100932        -1.822701
 H         4.883399        -0.603814        -2.322267
 H        -0.299428         0.758716         0.618742
 H        -0.340693         0.927986        -1.084264
 H        -0.341940        -0.757818        -0.511678
 H         2.384797         2.436480        -0.411898
 H         2.073678         1.678896         1.225722
 H         4.647016         1.042666         0.650005
 H         3.753696        -1.222195         1.490441
