19
Iteration:  1141
 C         4.579392        -0.924728        -1.502173
 C         3.466921        -0.506086        -0.536791
 O         2.320529        -0.178411        -1.282798
 C         1.504281         0.316615        -0.060356
 C         0.143149         0.513562        -0.520083
 C         2.461424         1.330820         0.535783
 C         3.602622         0.405516         0.635830
 C         2.995942        -0.961305         0.816291
 O         1.569172        -0.836646         0.776803
 H         5.059804        -1.855332        -1.408223
 H         4.086443        -0.925418        -2.544913
 H         5.365199        -0.193883        -1.612886
 H        -0.550292         0.643553         0.344285
 H         0.089748         1.420462        -1.096103
 H        -0.070701        -0.370474        -1.221732
 H         2.437779         2.297746        -0.174757
 H         1.913104         1.619657         1.578474
 H         4.668750         0.443036         0.963458
 H         3.399423        -1.685346         1.522706
