19
Iteration:  1219charge 0 multiplicity 1
 C         4.659366        -1.112071        -1.361384
 C         3.525178        -0.407339        -0.621933
 O         2.287438        -0.144941        -1.318993
 C         1.424210         0.251341        -0.117364
 C         0.047083         0.797043        -0.495821
 C         2.305250         1.249932         0.704890
 C         3.572040         0.424940         0.580694
 C         3.135850        -0.939053         0.717606
 O         1.683341        -0.963593         0.717430
 H         5.499171        -0.495676        -1.513123
 H         4.898833        -2.106167        -0.943269
 H         4.307258        -1.135498        -2.374896
 H        -0.519501         1.237243         0.336249
 H         0.056432         1.536640        -1.350227
 H        -0.470877        -0.081826        -0.887620
 H         2.504814         2.366337         0.304590
 H         1.802347         1.432530         1.761992
 H         4.468502         0.867662         0.919319
 H         3.575273        -1.820619         1.159257
