19
Iteration:  2418
 C         4.517814        -0.974689        -1.569331
 C         3.464533        -0.482948        -0.571167
 O         2.270341        -0.164984        -1.221019
 C         1.508862         0.245986        -0.122997
 C         0.132570         0.523439        -0.620905
 C         2.397769         1.365537         0.490478
 C         3.623571         0.417972         0.698570
 C         3.066793        -0.928990         0.867487
 O         1.652523        -0.848832         0.879269
 H         4.201496        -1.704670        -2.290756
 H         4.873701        -0.164551        -2.210527
 H         5.345151        -1.304397        -0.983815
 H        -0.501328         0.843740         0.219588
 H         0.119796         1.421015        -1.284541
 H        -0.265056        -0.457693        -0.952692
 H         2.414447         2.201477        -0.210160
 H         1.992464         1.764999         1.414208
 H         4.658963         0.681635         0.977695
 H         3.531564        -1.810880         1.404104
