19
Iteration:   835charge 0 multiplicity 1
 C         4.664751        -1.028770        -1.478803
 C         3.458974        -0.547542        -0.603380
 O         2.190598        -0.293279        -1.194536
 C         1.440818         0.241633        -0.096647
 C        -0.020725         0.280907        -0.418672
 C         2.432445         1.474141         0.320007
 C         3.635155         0.566766         0.433805
 C         3.110601        -0.796146         0.902632
 O         1.686868        -0.734390         0.922895
 H         4.350875        -0.800435        -2.536668
 H         5.443464        -0.194118        -1.220143
 H         5.033073        -2.053746        -1.392918
 H        -0.587859         0.661921         0.413272
 H        -0.120082         0.951433        -1.300256
 H        -0.122564        -0.714696        -0.672638
 H         2.613735         2.297600        -0.366629
 H         2.167673         1.924092         1.240566
 H         4.688134         0.960889         0.642376
 H         3.504889        -1.636518         1.512106
