19
Iteration:  4410
 C         4.564330        -1.077940        -1.458340
 C         3.496450        -0.518187        -0.564593
 O         2.239422        -0.569461        -1.152427
 C         1.473959         0.175630        -0.101818
 C        -0.051201         0.157885        -0.258758
 C         2.214654         1.392360         0.079036
 C         3.627010         0.803468         0.190338
 C         3.210026        -0.525134         0.874854
 O         1.842378        -0.586645         1.098483
 H         4.161793        -2.033694        -1.925424
 H         4.859043        -0.354047        -2.246540
 H         5.587275        -1.360581        -0.774760
 H        -0.395253         0.643990         0.626913
 H        -0.445681         0.615845        -1.141213
 H        -0.308288        -0.909532        -0.430585
 H         2.217698         2.079361        -0.817735
 H         1.810296         1.660360         1.024205
 H         4.541246         1.375159         0.398789
 H         3.925573        -0.868584         1.703495
