19
Iteration:  3881
 C         4.676158        -1.099008        -1.312536
 C         3.442430        -0.451293        -0.661106
 O         2.118258        -0.372537        -1.188821
 C         1.448195         0.139960        -0.069519
 C        -0.002742         0.392677        -0.405468
 C         2.302425         1.435199         0.244967
 C         3.599351         0.668745         0.312839
 C         3.269911        -0.733557         0.798062
 O         1.811986        -0.799121         1.003097
 H         5.508184        -0.485726        -0.995104
 H         4.586298        -2.107350        -1.125309
 H         4.550279        -0.899799        -2.378202
 H        -0.575819         0.791240         0.524046
 H        -0.091109         1.079831        -1.324781
 H        -0.601669        -0.588762        -0.579820
 H         2.352125         2.154775        -0.567942
 H         2.005520         1.928582         1.248400
 H         4.425733         1.228593         0.546396
 H         3.810689        -1.346587         1.415279
