19
Iteration:  4590
 C         4.574477        -1.254239        -1.351074
 C         3.496814        -0.412856        -0.649817
 O         2.178640        -0.340514        -1.184827
 C         1.458763         0.086046        -0.109348
 C        -0.005192         0.056136        -0.248470
 C         2.208084         1.530222         0.049494
 C         3.596936         0.832260         0.295042
 C         3.313393        -0.594126         0.862376
 O         1.859827        -0.692368         1.041588
 H         4.691855        -2.179721        -0.727342
 H         4.093809        -1.230322        -2.415799
 H         5.451207        -0.649337        -1.355154
 H        -0.528806         0.653448         0.576291
 H        -0.366459         0.629060        -1.148849
 H        -0.522426        -0.911843        -0.124199
 H         2.272246         2.003075        -0.874130
 H         1.807627         2.251348         0.751194
 H         4.573549         1.368005         0.310624
 H         3.881452        -1.079573         1.799443
