19
Iteration:   813
 C         4.599626        -0.980483        -1.409000
 C         3.463366        -0.491450        -0.616643
 O         2.217573        -0.305872        -1.288456
 C         1.458707         0.252366        -0.035833
 C         0.001492         0.262612        -0.387069
 C         2.411368         1.405953         0.232962
 C         3.600136         0.603076         0.504514
 C         3.100491        -0.867631         0.785585
 O         1.741494        -0.703662         0.994126
 H         4.787973        -0.224376        -2.226873
 H         5.585459        -1.040386        -0.780927
 H         4.323425        -1.961832        -1.817544
 H        -0.473793         0.708886         0.455397
 H        -0.125798         1.034922        -1.165587
 H        -0.162279        -0.727879        -0.645365
 H         2.486594         1.933998        -0.708924
 H         2.085331         2.126163         0.921330
 H         4.599000         0.864024         0.949533
 H         3.604876        -1.526920         1.512582
