19
Iteration:  3191charge 0 multiplicity 1
 C         4.578796        -1.111840        -1.387907
 C         3.465458        -0.435663        -0.674535
 O         2.191336        -0.267638        -1.185865
 C         1.474956         0.176582        -0.109443
 C         0.034876         0.339298        -0.349565
 C         2.316735         1.413665         0.230683
 C         3.589890         0.646061         0.381572
 C         3.230324        -0.746160         0.848366
 O         1.751516        -0.812690         0.971928
 H         5.200714        -0.279213        -1.893489
 H         5.250047        -1.382282        -0.461807
 H         4.305995        -1.891151        -2.082347
 H        -0.586790         0.785437         0.391697
 H        -0.357025         0.976598        -1.050308
 H        -0.165385        -0.714280        -0.522084
 H         2.420788         1.991240        -0.681737
 H         2.100690         2.014566         1.019775
 H         4.444547         1.163829         0.669095
 H         3.689090        -1.516225         1.441519
