19
Iteration:  3836charge 0 multiplicity 1
 C         4.506202        -1.197063        -1.478202
 C         3.544417        -0.429884        -0.552903
 O         2.266081        -0.293027        -1.198793
 C         1.507059         0.239899        -0.158158
 C        -0.028554         0.196136        -0.352193
 C         2.317846         1.462082         0.265696
 C         3.590780         0.705753         0.456487
 C         3.155575        -0.677986         0.879723
 O         1.785009        -0.751033         0.899248
 H         5.533814        -0.750751        -1.422293
 H         4.361240        -2.254753        -1.132779
 H         4.318183        -1.166459        -2.536652
 H        -0.541116         0.495848         0.597891
 H        -0.300906         0.822455        -1.295762
 H        -0.358460        -0.903920        -0.386869
 H         2.353830         2.137768        -0.577602
 H         1.956609         1.987155         1.217713
 H         4.600186         1.226289         0.681916
 H         3.825523        -1.223329         1.598440
