19
Iteration:  1497charge 0 multiplicity 1
 C         4.639067        -1.108345        -1.297038
 C         3.429872        -0.486003        -0.650300
 O         2.351107         0.056604        -1.214217
 C         1.504627         0.405250        -0.035105
 C         0.003859         0.632613        -0.494686
 C         2.618203         1.330104         0.621876
 C         3.593046         0.267148         0.697509
 C         2.961196        -1.066885         0.603160
 O         1.505719        -0.890497         0.588874
 H         5.434459        -0.765062        -0.655862
 H         4.648420        -2.125205        -1.545221
 H         4.728061        -0.577658        -2.231040
 H        -0.647317         0.690631         0.362527
 H        -0.159900         1.555884        -1.048905
 H        -0.252943        -0.178037        -1.147867
 H         2.828345         2.205705        -0.210235
 H         2.333989         1.716448         1.661506
 H         4.568361         0.376894         1.210514
 H         3.485649        -1.991979         0.932841
