19
Iteration:  1870
 C         4.623967        -1.022482        -1.449577
 C         3.488833        -0.512914        -0.612031
 O         2.292300        -0.069977        -1.286104
 C         1.474166         0.312883        -0.133304
 C         0.070934         0.682896        -0.517772
 C         2.359255         1.241367         0.636485
 C         3.681722         0.405167         0.653995
 C         3.019743        -1.029658         0.723547
 O         1.587493        -0.879629         0.785805
 H         4.168564        -1.050715        -2.445846
 H         5.573907        -0.322084        -1.428278
 H         4.974390        -2.019599        -1.134107
 H        -0.668473         0.954428         0.228344
 H         0.290919         1.468777        -1.169801
 H        -0.153103        -0.191184        -1.171184
 H         2.548212         2.287165         0.243179
 H         2.083862         1.526204         1.658447
 H         4.702276         0.654831         0.924717
 H         3.454388        -1.795259         1.354697
