19
Iteration:  1885
 C         4.588293        -1.032698        -1.402211
 C         3.478941        -0.441409        -0.612535
 O         2.279514        -0.076191        -1.280830
 C         1.492939         0.209638        -0.067714
 C         0.144386         0.736150        -0.519714
 C         2.389401         1.338932         0.569162
 C         3.529588         0.389728         0.683219
 C         3.067234        -1.041054         0.703857
 O         1.671330        -0.939347         0.745742
 H         4.367493        -1.231366        -2.428714
 H         5.391410        -0.406320        -1.377822
 H         4.845605        -1.963347        -0.916716
 H        -0.363147         0.900276         0.421014
 H         0.142617         1.737149        -1.050905
 H        -0.541859         0.170641        -1.068580
 H         2.509371         2.003965        -0.316949
 H         1.873840         1.683158         1.549449
 H         4.435124         0.751770         1.185849
 H         3.518362        -2.064280         0.987524
