19
Iteration:  1122
 C         4.608394        -0.963431        -1.496233
 C         3.487706        -0.516915        -0.592709
 O         2.226738        -0.127564        -1.178516
 C         1.437701         0.211957        -0.129943
 C         0.089457         0.632530        -0.615977
 C         2.368890         1.333354         0.532952
 C         3.619141         0.446138         0.618317
 C         3.113386        -0.995367         0.791120
 O         1.672019        -0.929335         0.874004
 H         4.738214        -2.068593        -1.412923
 H         4.395862        -0.597195        -2.558841
 H         5.508633        -0.578194        -0.952171
 H        -0.581735         0.883122         0.198338
 H         0.232244         1.591941        -1.130546
 H        -0.355000        -0.012051        -1.346686
 H         2.495585         2.106061        -0.286823
 H         2.194341         1.904721         1.474362
 H         4.466000         1.015537         1.057919
 H         3.507619        -1.875834         1.219276
