19
Iteration:  1658
 C         4.556110        -1.037133        -1.375765
 C         3.507207        -0.397370        -0.586371
 O         2.294654         0.009944        -1.251247
 C         1.471599         0.210413        -0.069443
 C         0.139500         0.757747        -0.530165
 C         2.390441         1.271950         0.586357
 C         3.655800         0.338510         0.723308
 C         3.025258        -1.038676         0.671748
 O         1.591344        -0.982156         0.659709
 H         4.839406        -2.009270        -0.748075
 H         4.332823        -1.407976        -2.396675
 H         5.497521        -0.381526        -1.466059
 H        -0.454007         1.117634         0.339111
 H         0.311602         1.711178        -1.146939
 H        -0.439781         0.108909        -1.208295
 H         2.535393         2.021285        -0.112440
 H         1.973178         1.659912         1.489977
 H         4.654763         0.598483         1.134985
 H         3.300313        -1.883070         1.212882
