19
Iteration:  1383charge 0 multiplicity 1
 C         4.636398        -0.992275        -1.444522
 C         3.493290        -0.529834        -0.615736
 O         2.338800        -0.025006        -1.305772
 C         1.539121         0.432605        -0.194092
 C         0.016879         0.590797        -0.513029
 C         2.512369         1.274441         0.735766
 C         3.692284         0.292476         0.700086
 C         2.926620        -1.020514         0.753215
 O         1.487164        -0.830755         0.652976
 H         4.607569        -2.076438        -1.371980
 H         4.742223        -0.677852        -2.514439
 H         5.652367        -0.886559        -1.038661
 H        -0.472526         0.816111         0.469827
 H        -0.235627         1.374483        -1.331044
 H        -0.293595        -0.397091        -0.871656
 H         2.561315         2.413053         0.499195
 H         2.058072         1.261838         1.784708
 H         4.770299         0.355294         1.025624
 H         3.267461        -1.807644         1.395199
