19
Iteration:  4417
 C         4.577840        -1.126143        -1.405899
 C         3.508556        -0.495298        -0.583475
 O         2.165508        -0.545279        -1.160406
 C         1.471049         0.129344        -0.118386
 C         0.010445         0.140040        -0.248185
 C         2.226533         1.429618         0.058729
 C         3.637942         0.846034         0.216453
 C         3.262160        -0.542008         0.838629
 O         1.838974        -0.615009         1.106824
 H         4.119545        -1.895039        -1.970392
 H         4.970544        -0.394110        -2.069448
 H         5.269111        -1.362772        -0.678013
 H        -0.554812         0.577999         0.583627
 H        -0.378127         0.597960        -1.169809
 H        -0.348720        -0.847979        -0.397150
 H         2.018526         2.207280        -0.720587
 H         1.841557         1.884901         1.041292
 H         4.528832         1.476576         0.247292
 H         3.816368        -1.014439         1.578563
