19
Iteration:  1178
 C         4.625050        -1.040624        -1.441743
 C         3.527794        -0.508795        -0.606903
 O         2.336223        -0.036971        -1.304982
 C         1.500954         0.381794        -0.127705
 C         0.014004         0.511950        -0.452343
 C         2.389066         1.347541         0.542281
 C         3.621851         0.330673         0.717516
 C         3.021848        -0.989776         0.725646
 O         1.596879        -0.840509         0.759750
 H         5.635589        -1.046953        -0.855875
 H         4.385172        -2.025184        -1.831747
 H         4.583822        -0.269969        -2.298213
 H        -0.615275         0.633930         0.405215
 H        -0.087146         1.342684        -1.194380
 H        -0.302368        -0.377234        -0.878588
 H         2.514742         2.216092        -0.113287
 H         2.126313         1.655224         1.557881
 H         4.601108         0.582745         1.039394
 H         3.501875        -1.813478         1.282777
