19
Iteration:  1107
 C         4.626198        -1.018992        -1.425088
 C         3.507217        -0.372791        -0.627853
 O         2.247488        -0.228483        -1.268213
 C         1.465055         0.186811        -0.062787
 C         0.040155         0.704929        -0.590970
 C         2.346976         1.299478         0.539587
 C         3.615682         0.494712         0.630513
 C         3.094254        -0.943900         0.760227
 O         1.686470        -0.939492         0.876411
 H         4.259123        -1.955670        -1.800996
 H         4.815143        -0.368301        -2.339751
 H         5.587073        -1.121482        -0.931905
 H        -0.693864         0.911381         0.244206
 H         0.276687         1.574755        -1.211576
 H        -0.543997        -0.057166        -1.227815
 H         2.524587         2.227654        -0.190672
 H         1.786480         1.585741         1.572762
 H         4.664058         0.663771         0.871298
 H         3.714924        -1.734834         1.278442
