19
Iteration:   958charge 0 multiplicity 1
 C         4.570309        -0.976948        -1.424517
 C         3.496073        -0.497087        -0.556800
 O         2.228333        -0.207142        -1.284990
 C         1.497233         0.149106        -0.076284
 C         0.020617         0.442927        -0.479917
 C         2.434920         1.394591         0.385130
 C         3.687054         0.569738         0.543403
 C         3.093898        -0.918451         0.887752
 O         1.637501        -0.819443         0.840927
 H         5.516920        -0.519085        -1.054546
 H         4.580431        -2.182812        -1.521442
 H         4.240844        -0.399983        -2.350666
 H        -0.503798         0.766694         0.448060
 H         0.085390         1.330105        -1.082580
 H        -0.410548        -0.472001        -0.990300
 H         2.513411         2.029446        -0.502262
 H         2.027955         1.969359         1.145916
 H         4.675032         0.858569         0.800338
 H         3.499894        -1.677967         1.544017
