19
Iteration:  2190
 C         4.565284        -1.005836        -1.369271
 C         3.488369        -0.483745        -0.599419
 O         2.340625        -0.058912        -1.308820
 C         1.484617         0.257841        -0.178321
 C         0.023765         0.604854        -0.376354
 C         2.499495         1.338886         0.522350
 C         3.572504         0.392198         0.705866
 C         3.024897        -1.010302         0.709047
 O         1.573666        -0.871383         0.667707
 H         5.058594        -0.397867        -2.150928
 H         5.348962        -1.057174        -0.621315
 H         4.300747        -2.016539        -1.697888
 H        -0.310901         0.709745         0.636617
 H        -0.073898         1.408163        -1.046989
 H        -0.420071        -0.279150        -0.756521
 H         2.839132         1.960357        -0.242832
 H         2.303930         1.835725         1.406763
 H         4.514938         0.654927         1.164465
 H         3.577149        -1.810418         1.262773
