19
Iteration:  2682
 C         4.508679        -0.984824        -1.536682
 C         3.505173        -0.527903        -0.564477
 O         2.333530        -0.298205        -1.249516
 C         1.525902         0.229733        -0.082428
 C         0.072851         0.544596        -0.496391
 C         2.356610         1.362971         0.474668
 C         3.614679         0.559263         0.615847
 C         3.091193        -0.873007         0.873828
 O         1.627063        -0.848202         0.807587
 H         4.547176        -0.049928        -2.210085
 H         5.494857        -1.012940        -1.105283
 H         4.151763        -2.013949        -1.961066
 H        -0.368854         0.696555         0.493237
 H         0.208836         1.334380        -1.222241
 H        -0.285181        -0.298481        -1.146908
 H         2.390894         2.073276        -0.358870
 H         1.894575         1.732721         1.413145
 H         4.538195         0.998688         0.948582
 H         3.638833        -1.607121         1.485435
