19
Iteration:  4821charge 0 multiplicity 1
 C         4.583121        -1.067272        -1.453134
 C         3.480610        -0.493970        -0.623940
 O         2.081762        -0.472561        -1.147327
 C         1.467784         0.074438        -0.053991
 C        -0.026748         0.082363        -0.367282
 C         2.322760         1.481488         0.007883
 C         3.616295         0.735564         0.291461
 C         3.260173        -0.506859         0.920716
 O         1.820128        -0.613119         1.162412
 H         5.520900        -0.789904        -0.907222
 H         4.577134        -2.162008        -1.641559
 H         4.673484        -0.602454        -2.512936
 H        -0.598408         0.467154         0.484676
 H        -0.078375         0.799901        -1.186937
 H        -0.311245        -0.980197        -0.567692
 H         2.266974         2.069814        -0.817633
 H         2.085485         2.128993         0.786899
 H         4.644149         1.171197         0.581218
 H         4.018332        -1.152759         1.567397
