19
Iteration:   427charge 0 multiplicity 1
 C         4.524329        -1.152481        -1.403805
 C         3.498380        -0.450705        -0.612613
 O         2.155087        -0.487521        -1.139384
 C         1.426285         0.093895         0.007164
 C        -0.056834         0.131882        -0.418976
 C         2.216667         1.477913         0.106332
 C         3.604810         0.961513         0.241507
 C         3.373771        -0.502430         0.843390
 O         1.913252        -0.797740         1.149973
 H         4.085254        -2.012245        -1.920343
 H         5.085924        -0.702057        -2.255642
 H         5.352267        -1.553617        -0.692633
 H        -0.664748         0.543555         0.401636
 H        -0.144894         0.797576        -1.336538
 H        -0.663809        -0.726019        -0.695586
 H         2.076988         1.955075        -0.872084
 H         1.937556         2.301407         0.705291
 H         4.514298         1.659401         0.430932
 H         3.966760        -1.170020         1.600566
