19
Iteration:  4769
 C         4.489476        -1.298319        -1.372818
 C         3.579900        -0.421533        -0.696188
 O         2.220725        -0.419927        -1.298616
 C         1.473127         0.147917        -0.098381
 C        -0.065271         0.111695        -0.323026
 C         2.208062         1.447470         0.255555
 C         3.556845         0.927448         0.294117
 C         3.268738        -0.516100         0.880558
 O         1.904817        -0.685978         1.052942
 H         5.559922        -1.187671        -1.361507
 H         4.459560        -2.185416        -0.847961
 H         4.165774        -1.442481        -2.451070
 H        -0.498484         0.657406         0.561578
 H        -0.310833         0.489757        -1.367964
 H        -0.179001        -0.996760        -0.216853
 H         2.110305         2.233176        -0.545792
 H         1.872837         1.960849         1.132138
 H         4.466048         1.497801         0.607510
 H         3.903422        -0.861984         1.816327
