19
Iteration:  3896charge 0 multiplicity 1
 C         4.595227        -1.017262        -1.390224
 C         3.467834        -0.499821        -0.557237
 O         2.150290        -0.397214        -1.200059
 C         1.434674         0.188449        -0.021070
 C        -0.015164         0.336844        -0.354770
 C         2.333635         1.476560         0.151435
 C         3.640787         0.731252         0.376169
 C         3.182110        -0.762481         0.833362
 O         1.814600        -0.837359         0.988091
 H         5.525968        -0.681893        -0.787155
 H         4.661791        -2.189463        -1.497916
 H         4.715663        -0.623879        -2.445041
 H        -0.553816         1.014358         0.371804
 H        -0.089739         1.022216        -1.193834
 H        -0.392196        -0.550555        -0.849030
 H         2.185526         1.949982        -0.911842
 H         1.998937         2.195822         0.916045
 H         4.739485         1.000384         0.575769
 H         3.780060        -1.584865         1.446589
