19
Iteration:   984charge 0 multiplicity 1
 C         4.620870        -1.042557        -1.532818
 C         3.553830        -0.454017        -0.613280
 O         2.214968        -0.351372        -1.227872
 C         1.483613         0.216065        -0.142206
 C         0.075144         0.651603        -0.547229
 C         2.307997         1.391475         0.449984
 C         3.535034         0.605297         0.578029
 C         3.127378        -0.915687         0.848831
 O         1.722684        -0.937271         0.955733
 H         5.407116        -0.270911        -1.604506
 H         5.043399        -1.885828        -1.127401
 H         4.099353        -1.104075        -2.500197
 H        -0.494335         0.935837         0.353614
 H         0.241680         1.541808        -1.281698
 H        -0.383169        -0.211303        -1.041279
 H         2.461482         2.217532        -0.255342
 H         1.807735         1.768205         1.460734
 H         4.425328         1.144946         1.069546
 H         3.623735        -1.709594         1.463580
