19
Iteration:  3605
 C         4.709541        -1.060155        -1.398621
 C         3.419263        -0.584538        -0.653357
 O         2.147689        -0.435240        -1.199873
 C         1.458749         0.259199        -0.138873
 C        -0.012454         0.226956        -0.273745
 C         2.400911         1.453263         0.172538
 C         3.630148         0.682145         0.336349
 C         3.169123        -0.655292         0.874318
 O         1.740179        -0.657561         0.997660
 H         5.479968        -1.408099        -0.728539
 H         4.429099        -1.949098        -2.050754
 H         4.952624        -0.212760        -1.953798
 H        -0.580787         0.454974         0.706756
 H        -0.385515         0.900023        -1.121612
 H        -0.455676        -0.814605        -0.360696
 H         2.420242         2.208149        -0.730421
 H         1.998906         1.956441         1.073302
 H         4.584377         1.170457         0.560900
 H         3.728339        -1.431267         1.494066
