19
Iteration:  1926
 C         4.665661        -1.039241        -1.443397
 C         3.484817        -0.579208        -0.558849
 O         2.414625        -0.074945        -1.312464
 C         1.467994         0.328016        -0.223905
 C         0.000471         0.644752        -0.378082
 C         2.359757         1.318507         0.615921
 C         3.639998         0.351172         0.605786
 C         2.973361        -1.017666         0.758924
 O         1.594389        -0.792128         0.677288
 H         4.480196        -1.718079        -2.255570
 H         5.290456        -0.122647        -1.890882
 H         5.346912        -1.636584        -0.820966
 H        -0.273704         0.721236         0.650947
 H        -0.149971         1.571682        -0.882707
 H        -0.515068        -0.162718        -0.843139
 H         2.445055         2.314171         0.051952
 H         2.087506         1.514918         1.694186
 H         4.538945         0.501706         1.167194
 H         3.181510        -1.936050         1.435731
