19
Iteration:   907charge 0 multiplicity 1
 C         4.573069        -1.124004        -1.374825
 C         3.492125        -0.430831        -0.605171
 O         2.293950        -0.193888        -1.334864
 C         1.476701         0.250028        -0.061446
 C        -0.021626         0.332679        -0.412315
 C         2.404458         1.382212         0.417249
 C         3.623982         0.609390         0.490486
 C         3.086124        -0.796114         0.835778
 O         1.703825        -0.824603         0.858337
 H         4.744569        -2.075721        -0.931705
 H         4.114689        -1.162896        -2.284730
 H         5.527561        -0.588363        -1.416463
 H        -0.593184         0.754021         0.423630
 H        -0.099845         1.125804        -1.191634
 H        -0.257219        -0.689250        -0.795786
 H         2.342755         2.237377        -0.246720
 H         2.047720         1.760389         1.462911
 H         4.576241         1.158562         0.667192
 H         3.697275        -1.654904         1.134200
