19
Iteration:   612
 C         4.566976        -1.093992        -1.470662
 C         3.498278        -0.450089        -0.571449
 O         2.257216        -0.433286        -1.185642
 C         1.519751         0.222835        -0.214705
 C        -0.029390         0.120266        -0.341056
 C         2.284220         1.482747         0.254787
 C         3.638900         0.745481         0.326478
 C         3.183371        -0.652251         0.879384
 O         1.734184        -0.657739         1.000596
 H         4.264205        -0.876537        -2.528920
 H         5.614900        -0.816239        -1.120129
 H         4.372079        -2.228297        -1.269636
 H        -0.255166         0.302440         0.700339
 H        -0.452659         0.709936        -1.107853
 H        -0.247753        -0.951424        -0.474244
 H         2.244359         2.380395        -0.426493
 H         1.908844         1.704442         1.283711
 H         4.619953         1.042183         0.623720
 H         3.808010        -1.057436         1.601522
