19
Iteration:  1503charge 0 multiplicity 1
 C         4.597842        -1.083477        -1.308837
 C         3.480557        -0.456680        -0.648273
 O         2.322961         0.068328        -1.225234
 C         1.484100         0.398159        -0.063546
 C         0.034828         0.650695        -0.525481
 C         2.626194         1.371431         0.614427
 C         3.571485         0.241482         0.747832
 C         2.919758        -1.071671         0.611524
 O         1.535882        -0.940295         0.604380
 H         5.524965        -0.633087        -0.797610
 H         4.549501        -2.234593        -1.497862
 H         4.881854        -0.764942        -2.371186
 H        -0.500350         0.542314         0.464273
 H        -0.095754         1.625730        -1.002218
 H        -0.259672        -0.323362        -1.076236
 H         2.760118         2.075796        -0.106953
 H         2.633677         1.934279         1.535129
 H         4.466728         0.362102         1.298757
 H         3.392352        -1.978520         1.022652
