19
Iteration:  4272
 C         4.602583        -1.148642        -1.444238
 C         3.501748        -0.480853        -0.600638
 O         2.204405        -0.445537        -1.189204
 C         1.432565         0.154092        -0.045113
 C        -0.018804         0.092978        -0.262082
 C         2.262190         1.530022         0.120289
 C         3.601884         0.787695         0.291703
 C         3.196635        -0.593108         0.854221
 O         1.862664        -0.621771         1.037323
 H         5.326374        -1.664117        -0.736797
 H         4.079447        -2.085103        -1.858982
 H         5.065665        -0.594653        -2.205777
 H        -0.591554         0.547213         0.591146
 H        -0.408482         0.565092        -1.200690
 H        -0.326354        -1.011329        -0.488788
 H         2.190952         2.068123        -0.853549
 H         1.943549         2.349426         0.980220
 H         4.599254         1.186116         0.347371
 H         3.789476        -1.136766         1.569357
