19
Iteration:  4308
 C         4.506139        -1.201670        -1.323630
 C         3.502149        -0.430354        -0.627916
 O         2.235511        -0.417188        -1.237676
 C         1.510843         0.093395        -0.127442
 C        -0.067223         0.116210        -0.228834
 C         2.244157         1.489772         0.153804
 C         3.594098         0.863617         0.273367
 C         3.247997        -0.541237         0.846474
 O         1.896522        -0.679990         1.002592
 H         4.909673        -2.022864        -0.653660
 H         3.888328        -1.681956        -2.157941
 H         5.446598        -0.803485        -1.801287
 H        -0.530713         0.587626         0.632895
 H        -0.255054         0.695157        -1.128957
 H        -0.429401        -0.868666        -0.184899
 H         2.006776         2.042581        -0.774262
 H         1.714774         2.032209         1.088104
 H         4.551699         1.396699         0.262714
 H         3.818710        -1.245764         1.565670
