19
Iteration:  3391
 C         4.546847        -1.161448        -1.547963
 C         3.483416        -0.521331        -0.622265
 O         2.210194        -0.417984        -1.178667
 C         1.468030         0.274860        -0.144659
 C         0.030847         0.103011        -0.415537
 C         2.329936         1.494980         0.316095
 C         3.675492         0.686716         0.316994
 C         3.165090        -0.654335         0.881518
 O         1.770874        -0.583821         1.069545
 H         5.025354        -1.911256        -0.888154
 H         3.986396        -1.521634        -2.419116
 H         5.185272        -0.232136        -1.889607
 H        -0.464088         0.341455         0.488625
 H        -0.321956         0.655039        -1.314258
 H        -0.405391        -0.865360        -0.528506
 H         2.409895         2.371140        -0.227895
 H         2.115493         1.746454         1.337994
 H         4.510707         1.192474         0.771383
 H         3.551644        -1.165202         1.682913
