19
Iteration:  2414
 C         4.531530        -0.966428        -1.580418
 C         3.466073        -0.529960        -0.588740
 O         2.308044        -0.165261        -1.234210
 C         1.492518         0.256053        -0.119758
 C         0.076657         0.524784        -0.613717
 C         2.396558         1.332873         0.491530
 C         3.638689         0.430616         0.711496
 C         3.072049        -0.932411         0.917115
 O         1.633343        -0.824478         0.859377
 H         4.175960        -1.831425        -2.235778
 H         4.758744        -0.007834        -2.291758
 H         5.479310        -1.301341        -1.063185
 H        -0.468168         0.835186         0.265864
 H         0.116053         1.391927        -1.251319
 H        -0.202152        -0.438011        -0.948792
 H         2.511071         2.279658        -0.185884
 H         2.003122         1.788115         1.467799
 H         4.647641         0.756088         0.958372
 H         3.506470        -1.778773         1.352270
