19
Iteration:  1768charge 0 multiplicity 1
 C         4.668430        -1.033541        -1.367112
 C         3.495882        -0.479593        -0.676002
 O         2.329026        -0.106176        -1.355838
 C         1.493875         0.295624        -0.200906
 C         0.090841         0.746239        -0.428750
 C         2.396567         1.218505         0.704098
 C         3.597105         0.400961         0.655522
 C         2.997089        -1.002696         0.662828
 O         1.556410        -0.870242         0.749990
 H         4.516660        -2.190930        -1.646810
 H         4.985170        -0.403394        -2.217795
 H         5.398864        -1.052806        -0.463409
 H        -0.288537         0.999418         0.614878
 H         0.152465         1.741459        -1.054994
 H        -0.596701         0.056905        -0.937099
 H         2.411497         2.179871         0.361238
 H         1.870307         1.048805         1.589766
 H         4.617566         0.658788         0.818459
 H         3.565828        -1.913109         1.095381
