19
Iteration:  2203
 C         4.612912        -1.028754        -1.317700
 C         3.469699        -0.412187        -0.556145
 O         2.280865        -0.071887        -1.264286
 C         1.528749         0.287905        -0.111809
 C         0.111629         0.635524        -0.366598
 C         2.444960         1.385271         0.428070
 C         3.616632         0.400231         0.629024
 C         2.975236        -1.016129         0.756062
 O         1.626059        -1.014336         0.631115
 H         5.021393        -0.195099        -2.008231
 H         5.340982        -1.520653        -0.708440
 H         4.172829        -1.796376        -2.065213
 H        -0.371558         0.965288         0.500968
 H         0.041192         1.474609        -0.907397
 H        -0.506488        -0.115391        -0.812468
 H         2.540463         2.169717        -0.308727
 H         1.962862         1.870977         1.280912
 H         4.588911         0.651502         1.067794
 H         3.262771        -1.904037         1.228747
