19
Iteration:  1739
 C         4.692622        -1.029292        -1.435955
 C         3.515366        -0.493999        -0.540102
 O         2.252741         0.029871        -1.171801
 C         1.518541         0.348959        -0.068724
 C         0.089582         0.646913        -0.439217
 C         2.508439         1.300025         0.505373
 C         3.548413         0.304786         0.730441
 C         2.962806        -1.066559         0.706182
 O         1.545748        -0.906163         0.571831
 H         4.733397        -2.092129        -1.462432
 H         4.516842        -0.611326        -2.432866
 H         5.631399        -0.695563        -1.048565
 H        -0.639301         0.693091         0.345117
 H         0.126507         1.501949        -1.007053
 H        -0.366361        -0.115802        -1.076796
 H         2.740454         2.040653        -0.428531
 H         2.236376         1.818479         1.490778
 H         4.508576         0.566043         1.188485
 H         3.381673        -1.965048         1.207416
