19
Iteration:  4089charge 0 multiplicity 1
 C         4.526870        -1.073053        -1.511971
 C         3.582392        -0.614733        -0.535830
 O         2.208038        -0.528538        -1.170656
 C         1.493759         0.158528        -0.135051
 C        -0.012136         0.267281        -0.430377
 C         2.231870         1.403493         0.231298
 C         3.580353         0.715626         0.320989
 C         3.280124        -0.561195         0.946609
 O         1.772312        -0.596746         1.035572
 H         4.128411        -1.196836        -2.582362
 H         5.496558        -0.237595        -1.624213
 H         5.024825        -2.088520        -1.416685
 H        -0.252060         0.756582         0.545839
 H        -0.272908         0.991758        -1.192107
 H        -0.492625        -0.684382        -0.594224
 H         2.123137         2.218160        -0.451071
 H         1.759333         1.667483         1.176296
 H         4.468496         1.325879         0.640932
 H         3.817282        -1.057303         1.713807
