19
Iteration:   657charge 0 multiplicity 1
 C         4.640245        -1.055893        -1.412156
 C         3.514027        -0.392202        -0.611459
 O         2.133652        -0.419512        -1.130371
 C         1.447468         0.141729        -0.000212
 C         0.048808         0.390256        -0.420492
 C         2.234698         1.459266         0.117279
 C         3.581376         0.672144         0.298241
 C         3.275052        -0.666605         0.814262
 O         1.787053        -0.883299         1.061845
 H         4.049694        -1.836059        -2.007197
 H         5.202580        -0.212174        -1.934644
 H         5.530320        -1.342884        -0.653351
 H        -0.619603         0.780321         0.362418
 H        -0.061658         0.895333        -1.337180
 H        -0.344564        -0.657579        -0.540891
 H         2.072406         2.043550        -0.778423
 H         1.880897         1.910857         1.123186
 H         4.475075         1.261203         0.661647
 H         3.865669        -1.341136         1.458185
