19
Iteration:  1542
 C         4.554965        -1.035182        -1.545133
 C         3.522719        -0.573187        -0.541555
 O         2.449298        -0.094077        -1.269933
 C         1.528203         0.337685        -0.206422
 C         0.140973         0.813999        -0.557498
 C         2.331433         1.232231         0.776990
 C         3.605732         0.362155         0.672519
 C         2.938351        -1.029795         0.745757
 O         1.584392        -0.875784         0.663374
 H         5.420830        -0.667289        -1.122897
 H         4.583904        -2.134300        -1.461697
 H         4.291241        -0.814110        -2.558509
 H        -0.323736         0.806076         0.415383
 H        -0.021767         1.849788        -0.953559
 H        -0.392996         0.170716        -1.159248
 H         2.508134         2.349086         0.362310
 H         2.048565         1.130138         1.863406
 H         4.406120         0.564785         1.426505
 H         3.158628        -1.786024         1.419022
