19
Iteration:  2579
 C         4.568233        -1.037443        -1.531518
 C         3.534718        -0.465745        -0.577499
 O         2.296445        -0.131676        -1.173458
 C         1.457130         0.166834        -0.107730
 C         0.088412         0.486850        -0.508642
 C         2.323244         1.372056         0.407688
 C         3.579654         0.520169         0.548804
 C         3.111554        -0.931175         0.839130
 O         1.672315        -0.877465         0.884927
 H         5.120979        -0.188033        -1.926383
 H         5.213974        -1.749649        -0.933073
 H         3.990923        -1.470863        -2.321852
 H        -0.482420         0.929239         0.278613
 H         0.125217         1.331116        -1.203265
 H        -0.322695        -0.407977        -0.852008
 H         2.575336         2.217760        -0.384571
 H         2.014790         2.045449         1.280351
 H         4.447082         0.949774         0.959668
 H         3.542969        -1.607811         1.555156
