19
Iteration:  1412charge 0 multiplicity 1
 C         4.545942        -0.938994        -1.516914
 C         3.451863        -0.561953        -0.574085
 O         2.339950        -0.025328        -1.278799
 C         1.555004         0.348006        -0.095776
 C         0.170059         0.641329        -0.626315
 C         2.468478         1.296984         0.646568
 C         3.657217         0.308463         0.801070
 C         2.928774        -1.072316         0.677420
 O         1.518772        -0.856622         0.801209
 H         4.925828        -1.969427        -1.467065
 H         4.281535        -0.757836        -2.645246
 H         5.477909        -0.371179        -1.257380
 H        -0.562629         0.997486         0.098697
 H         0.286071         1.367529        -1.467471
 H        -0.240012        -0.302404        -0.921166
 H         2.495940         2.168437         0.102517
 H         2.048450         1.575210         1.576168
 H         4.582829         0.411240         1.380856
 H         3.313787        -2.016241         1.173154
