19
Iteration:  3479
 C         4.596589        -1.083795        -1.347250
 C         3.524151        -0.558435        -0.613743
 O         2.140207        -0.378835        -1.223072
 C         1.442101         0.236377        -0.141841
 C        -0.016713         0.211087        -0.317341
 C         2.325553         1.473601         0.190212
 C         3.699029         0.660340         0.306937
 C         3.135549        -0.687963         0.833846
 O         1.770493        -0.660084         1.029301
 H         5.577654        -0.915268        -0.818423
 H         4.447366        -2.057175        -1.814117
 H         4.807519        -0.682999        -2.433034
 H        -0.364131         0.658582         0.614353
 H        -0.319082         0.857144        -1.149195
 H        -0.402311        -0.813287        -0.508572
 H         2.386840         2.278644        -0.464180
 H         2.008693         1.749100         1.218152
 H         4.665463         1.072320         0.654856
 H         3.823612        -1.289657         1.548225
