19
Iteration:  2655charge 0 multiplicity 1
 C         4.637048        -1.053893        -1.420746
 C         3.521020        -0.414113        -0.646866
 O         2.218015        -0.181110        -1.263627
 C         1.449836         0.211784        -0.103349
 C        -0.014089         0.506060        -0.487820
 C         2.389196         1.372627         0.439906
 C         3.592603         0.523126         0.573637
 C         3.116905        -0.910123         0.767426
 O         1.702981        -0.902638         0.885957
 H         5.284585        -0.306736        -1.774780
 H         5.271972        -1.580469        -0.662046
 H         4.165584        -1.754131        -1.999458
 H        -0.385200         0.981312         0.439914
 H         0.159346         1.402712        -1.148551
 H        -0.600251        -0.313605        -0.836607
 H         2.413883         2.164917        -0.367076
 H         2.062602         1.810869         1.431570
 H         4.528066         0.971922         0.908252
 H         3.731325        -1.620199         1.257244
