19
Iteration:  1815charge 0 multiplicity 1
 C         4.526434        -1.003140        -1.466010
 C         3.517261        -0.407100        -0.567975
 O         2.361505         0.065381        -1.216919
 C         1.478365         0.249329        -0.120677
 C         0.119823         0.590608        -0.557154
 C         2.449462         1.301262         0.517829
 C         3.627263         0.340447         0.719712
 C         2.980195        -1.092555         0.766636
 O         1.572782        -0.907496         0.762225
 H         3.987389        -1.203891        -2.424390
 H         5.277948        -0.176787        -1.733556
 H         4.917558        -1.962574        -1.111040
 H        -0.405294         0.956659         0.318364
 H         0.125587         1.313008        -1.303455
 H        -0.436210        -0.289968        -0.966272
 H         2.898452         1.949980        -0.309371
 H         2.169138         1.760411         1.473942
 H         4.470124         0.622669         1.381811
 H         3.341350        -1.990585         1.117239
