19
Iteration:   124
 C         4.595148        -1.149744        -1.400845
 C         3.528190        -0.462793        -0.588470
 O         2.264269        -0.625631        -1.191745
 C         1.501692         0.068147        -0.148098
 C        -0.010192        -0.065082        -0.012954
 C         2.085398         1.458703        -0.090684
 C         3.504005         0.917699         0.153184
 C         3.259613        -0.415417         0.870921
 O         1.898955        -0.472997         1.083987
 H         4.218328        -0.989720        -2.417296
 H         5.593646        -0.631310        -1.296670
 H         4.720497        -2.270983        -1.306852
 H        -0.257005         0.660499         0.755248
 H        -0.471259         0.238360        -0.956130
 H        -0.274628        -1.055660         0.323301
 H         2.007505         2.184671        -0.936626
 H         1.639971         1.939287         0.771848
 H         4.488646         1.385145         0.321796
 H         3.846052        -0.850312         1.746570
