19
Iteration:   471charge 0 multiplicity 1
 C         4.601790        -1.134608        -1.461846
 C         3.478564        -0.501526        -0.534262
 O         2.237514        -0.453105        -1.214683
 C         1.473829         0.116720        -0.164480
 C        -0.093337         0.025902        -0.284720
 C         2.323049         1.523092         0.173628
 C         3.683585         0.824122         0.232795
 C         3.122187        -0.570920         0.919180
 O         1.791515        -0.580712         1.088379
 H         4.998152        -2.154422        -1.351201
 H         4.163363        -1.086693        -2.497507
 H         5.543349        -0.460316        -1.502136
 H        -0.475623         0.443414         0.657497
 H        -0.434038         0.323486        -1.278106
 H        -0.274695        -1.058680        -0.169448
 H         2.150426         2.188626        -0.648345
 H         1.993914         2.090153         1.019182
 H         4.700521         1.253465         0.291537
 H         3.777293        -1.138795         1.619383
