19
Iteration:  1021charge 0 multiplicity 1
 C         4.553090        -1.023493        -1.436101
 C         3.450867        -0.497342        -0.542135
 O         2.265945        -0.166981        -1.295878
 C         1.520342         0.306176        -0.117047
 C         0.086947         0.460681        -0.517827
 C         2.417113         1.371270         0.517469
 C         3.631595         0.518231         0.493474
 C         3.061944        -0.935257         0.834503
 O         1.662747        -0.859101         0.842711
 H         4.693919        -0.299461        -2.216756
 H         5.467852        -1.248541        -0.797167
 H         4.430488        -2.011251        -1.851266
 H        -0.517239         0.885067         0.297840
 H        -0.133361         1.162134        -1.280086
 H        -0.254446        -0.539115        -0.829412
 H         2.420357         2.353736        -0.091462
 H         1.966522         1.592841         1.540129
 H         4.493575         0.980930         0.876420
 H         3.592010        -1.615635         1.486074
