19
Iteration:  3535charge 0 multiplicity 1
 C         4.460176        -1.227320        -1.544637
 C         3.551970        -0.474285        -0.538775
 O         2.305236        -0.424753        -1.214908
 C         1.465060         0.194518        -0.141436
 C         0.036959         0.259934        -0.412475
 C         2.230525         1.424785         0.325147
 C         3.629746         0.752654         0.382735
 C         3.211400        -0.595606         0.927709
 O         1.788191        -0.680009         0.969558
 H         5.498908        -0.844358        -1.432967
 H         4.426330        -2.196306        -1.194048
 H         4.001211        -1.013903        -2.498057
 H        -0.505913         0.700354         0.410714
 H        -0.099090         0.857550        -1.286943
 H        -0.476893        -0.671377        -0.512997
 H         2.203488         2.268998        -0.245950
 H         1.931608         1.674031         1.343475
 H         4.490118         1.350974         0.464923
 H         3.696354        -1.218029         1.576592
