19
Iteration:    99charge 0 multiplicity 1
 C         4.635144        -1.100252        -1.330187
 C         3.504284        -0.372905        -0.642082
 O         2.068701        -0.592086        -1.073891
 C         1.440323         0.067802         0.026187
 C        -0.158644         0.049725        -0.187134
 C         2.143541         1.406797        -0.128768
 C         3.531849         0.962781         0.050650
 C         3.424160        -0.373549         0.903908
 O         2.044285        -0.733037         1.140256
 H         4.966408        -0.778267        -2.287883
 H         5.410577        -1.054784        -0.635143
 H         4.345563        -2.117045        -1.419617
 H        -0.750705         0.670610         0.512065
 H        -0.253366         0.408099        -1.189086
 H        -0.456431        -1.017984        -0.183347
 H         1.956439         1.755634        -1.162248
 H         1.948970         2.296581         0.427287
 H         4.386770         1.651238        -0.180330
 H         4.078067        -1.051250         1.437731
