19
Iteration:    48charge 0 multiplicity 1
 C         4.556762        -1.140725        -1.565972
 C         3.565675        -0.538614        -0.551857
 O         2.213624        -0.652736        -1.022712
 C         1.457176         0.100351        -0.103698
 C        -0.105827        -0.140539        -0.176581
 C         2.154334         1.491257        -0.046392
 C         3.619589         0.924263         0.078215
 C         3.342271        -0.319846         0.977762
 O         1.877326        -0.458873         1.129281
 H         5.297018        -0.380487        -1.930726
 H         5.119764        -2.069286        -1.185100
 H         3.877084        -1.441950        -2.435716
 H        -0.508592         0.170175         0.794508
 H        -0.603920         0.394736        -0.969070
 H        -0.262545        -1.214055        -0.314905
 H         1.916912         2.107290        -0.963077
 H         1.859640         2.121637         0.768106
 H         4.585440         1.477185        -0.006519
 H         3.875239        -0.642722         1.890117
