19
Iteration:  3330
 C         4.617015        -1.104778        -1.378762
 C         3.512111        -0.442789        -0.647890
 O         2.151788        -0.394786        -1.225016
 C         1.451333         0.191801        -0.114461
 C        -0.031674         0.338588        -0.329366
 C         2.252813         1.424674         0.215318
 C         3.613827         0.707883         0.342248
 C         3.227435        -0.670635         0.856708
 O         1.818357        -0.810269         1.004199
 H         5.609397        -1.302647        -1.023605
 H         4.354250        -2.197588        -1.478850
 H         4.778883        -0.715599        -2.328835
 H        -0.336805         0.953976         0.582884
 H        -0.043651         1.109622        -1.128417
 H        -0.404633        -0.739892        -0.448147
 H         2.350097         2.269168        -0.572060
 H         1.939809         1.933478         1.219527
 H         4.522537         1.309182         0.468661
 H         3.673598        -1.431310         1.593245
