19
Iteration:  2539
 C         4.543766        -0.954310        -1.527268
 C         3.488440        -0.490833        -0.627328
 O         2.251449        -0.297200        -1.177557
 C         1.506123         0.199806        -0.105810
 C         0.095721         0.536241        -0.615283
 C         2.342154         1.337043         0.569273
 C         3.601107         0.481402         0.552439
 C         3.124719        -0.946384         0.797637
 O         1.669160        -0.715647         0.896829
 H         4.725907        -0.321331        -2.396296
 H         5.570840        -0.813733        -0.986494
 H         4.493088        -2.061022        -1.632723
 H        -0.436855         0.685386         0.348382
 H         0.126033         1.459886        -1.194098
 H        -0.437688        -0.283878        -1.200584
 H         2.359548         2.213959        -0.033924
 H         2.030785         1.439987         1.595493
 H         4.611667         0.867908         0.698952
 H         3.481399        -1.692054         1.446697
