19
Iteration:  4695charge 0 multiplicity 1
 C         4.620969        -0.964114        -1.470465
 C         3.582651        -0.615452        -0.520159
 O         2.137140        -0.587166        -1.148968
 C         1.470481         0.137598        -0.167831
 C        -0.070251         0.213426        -0.276270
 C         2.285815         1.407545        -0.000413
 C         3.605365         0.796951         0.248361
 C         3.223684        -0.629394         0.926815
 O         1.775273        -0.582993         1.142735
 H         5.561965        -1.414790        -1.180745
 H         4.335043        -1.802160        -2.208271
 H         4.845748        -0.034696        -2.035434
 H        -0.208570         0.622512         0.726175
 H        -0.389486         0.851978        -1.118133
 H        -0.406457        -0.784219        -0.430050
 H         2.223597         1.969583        -1.086681
 H         1.957649         2.052106         0.935258
 H         4.585412         1.244482         0.502929
 H         3.951128        -0.900341         1.801197
