19
Iteration:  4509charge 0 multiplicity 1
 C         4.597205        -1.044353        -1.496706
 C         3.501748        -0.498042        -0.556923
 O         2.173239        -0.520768        -1.072935
 C         1.451518         0.112779        -0.048526
 C        -0.028679         0.065712        -0.310513
 C         2.239292         1.478359        -0.017541
 C         3.608527         0.763553         0.241440
 C         3.241531        -0.538302         0.896366
 O         1.851799        -0.597548         1.164175
 H         3.954818        -1.519372        -2.259688
 H         5.130721        -0.303089        -2.177623
 H         5.317493        -1.689043        -0.809644
 H        -0.490969         0.574537         0.498370
 H        -0.161700         0.620244        -1.213192
 H        -0.448706        -0.867097        -0.695883
 H         2.240836         1.826396        -1.104496
 H         2.055507         2.263073         0.726315
 H         4.543571         1.292686         0.209353
 H         3.808551        -1.135125         1.572066
