19
Iteration:  3233
 C         4.521713        -1.150769        -1.524272
 C         3.525820        -0.450426        -0.620733
 O         2.217265        -0.368814        -1.153177
 C         1.511406         0.244058        -0.158485
 C        -0.030690         0.250015        -0.469178
 C         2.282986         1.388047         0.347290
 C         3.638979         0.670181         0.414363
 C         3.187169        -0.665819         0.912674
 O         1.775988        -0.668047         0.969534
 H         5.530085        -0.775066        -1.808868
 H         5.091158        -1.983950        -0.957178
 H         4.072834        -1.405698        -2.442925
 H        -0.372143         0.618514         0.545998
 H        -0.212514         0.998123        -1.210423
 H        -0.445362        -0.787686        -0.589883
 H         2.073664         2.316743        -0.249476
 H         1.934840         1.567786         1.401704
 H         4.586065         1.055482         0.585817
 H         3.883324        -1.185562         1.521664
