19
Iteration:  3717
 C         4.567347        -1.119231        -1.405430
 C         3.497249        -0.483453        -0.610186
 O         2.264365        -0.417329        -1.241621
 C         1.487891         0.231841        -0.142028
 C        -0.074312         0.184566        -0.240701
 C         2.334648         1.526460         0.154553
 C         3.629202         0.699817         0.380348
 C         3.180087        -0.681981         0.864099
 O         1.733520        -0.684745         0.957138
 H         5.121913        -1.927615        -0.931158
 H         4.217651        -1.375195        -2.359068
 H         5.442522        -0.564008        -1.615332
 H        -0.376253         0.628262         0.714651
 H        -0.394509         0.749734        -1.177189
 H        -0.395591        -0.905641        -0.263697
 H         2.175138         2.179326        -0.708225
 H         2.036963         1.978967         1.202956
 H         4.624134         1.146518         0.785400
 H         3.798438        -1.323180         1.569119
