19
Iteration:  3783charge 0 multiplicity 1
 C         4.624332        -1.087380        -1.517535
 C         3.472436        -0.519550        -0.579684
 O         2.148185        -0.508636        -1.198375
 C         1.460593         0.206312        -0.097193
 C         0.008417         0.252875        -0.458215
 C         2.280528         1.454104         0.324940
 C         3.658867         0.663064         0.314784
 C         3.235919        -0.627830         0.938598
 O         1.775910        -0.636858         0.995163
 H         5.481786        -1.308342        -0.848474
 H         4.098339        -1.797505        -2.025876
 H         4.991821        -0.314679        -2.207979
 H        -0.458429         0.685029         0.464827
 H        -0.290939         1.015067        -1.280866
 H        -0.460589        -0.725940        -0.811039
 H         2.299448         2.425382        -0.170907
 H         1.928796         1.545438         1.458426
 H         4.671428         1.219191         0.495068
 H         3.742266        -1.271539         1.747455
