19
Iteration:  4779
 C         4.508183        -1.365613        -1.424281
 C         3.523184        -0.380075        -0.586254
 O         2.198177        -0.426698        -1.216381
 C         1.502432         0.142656        -0.186710
 C         0.048384         0.035289        -0.294331
 C         2.192521         1.509460         0.217661
 C         3.594535         0.897776         0.322791
 C         3.236856        -0.454033         0.856454
 O         1.892427        -0.661346         1.009311
 H         5.516542        -0.944746        -1.457777
 H         4.415630        -2.360930        -1.116481
 H         4.119941        -1.394061        -2.502216
 H        -0.444667         0.674675         0.483745
 H        -0.284682         0.576356        -1.230149
 H        -0.466959        -0.965574        -0.225606
 H         2.027687         2.295790        -0.454391
 H         1.784005         1.736236         1.155124
 H         4.475566         1.430442         0.780496
 H         3.826447        -1.010708         1.691805
