19
Iteration:  2048charge 0 multiplicity 1
 C         4.685579        -1.016506        -1.316737
 C         3.479615        -0.472944        -0.658930
 O         2.254198         0.059326        -1.287293
 C         1.457144         0.273869        -0.007783
 C         0.073403         0.602961        -0.467620
 C         2.463163         1.333587         0.486801
 C         3.614443         0.268850         0.636468
 C         2.991262        -1.079682         0.667611
 O         1.557798        -0.843542         0.738094
 H         4.570388        -2.048181        -1.791659
 H         5.077676        -0.423301        -2.226504
 H         5.463101        -1.194435        -0.541604
 H        -0.441422         0.920848         0.392897
 H         0.115427         1.406660        -1.174352
 H        -0.329199        -0.206815        -0.926360
 H         2.922940         2.026484        -0.239101
 H         2.376172         1.730143         1.530037
 H         4.595600         0.599489         1.058252
 H         3.152403        -1.932189         1.296376
