19
Iteration:  2781
 C         4.627478        -1.130437        -1.442143
 C         3.594604        -0.452698        -0.594795
 O         2.313647        -0.219808        -1.344593
 C         1.504178         0.260207        -0.207024
 C         0.006415         0.552916        -0.360620
 C         2.230860         1.420145         0.489297
 C         3.633008         0.565890         0.642376
 C         3.073803        -0.855220         0.772322
 O         1.675739        -0.886128         0.788387
 H         4.257692        -1.013764        -2.463909
 H         5.591865        -0.832300        -1.133764
 H         4.439869        -2.260132        -1.312864
 H        -0.089993         0.881587         0.637780
 H        -0.095414         1.240865        -1.168251
 H        -0.565990        -0.315317        -0.620917
 H         2.222756         2.383541        -0.011106
 H         1.980526         1.452843         1.546031
 H         4.584009         0.667925         1.070105
 H         3.485231        -1.589961         1.427490
