19
Iteration:  4342charge 0 multiplicity 1
 C         4.658168        -1.158960        -1.474463
 C         3.445670        -0.541322        -0.611182
 O         2.133746        -0.495720        -1.151300
 C         1.464594         0.140545        -0.089766
 C        -0.036997         0.137224        -0.340833
 C         2.284640         1.454567         0.165687
 C         3.616741         0.852285         0.227122
 C         3.259050        -0.529182         0.881375
 O         1.855099        -0.613851         1.138753
 H         4.946376        -2.125189        -1.014919
 H         4.178084        -1.366851        -2.429487
 H         5.470240        -0.304840        -1.583877
 H        -0.604907         0.630137         0.405910
 H        -0.286830         0.618241        -1.251566
 H        -0.402756        -0.781595        -0.617049
 H         2.059928         2.114338        -0.734356
 H         1.827828         1.809414         1.151661
 H         4.623003         1.286758         0.299652
 H         3.751748        -1.140157         1.567178
