19
Iteration:  4854charge 0 multiplicity 1
 C         4.654306        -0.978892        -1.391421
 C         3.500831        -0.543496        -0.510233
 O         2.143490        -0.667713        -1.163946
 C         1.453982         0.048772        -0.158398
 C        -0.050944         0.241835        -0.241161
 C         2.247634         1.464441         0.012737
 C         3.590598         0.765518         0.133351
 C         3.251740        -0.586975         0.895978
 O         1.862645        -0.573402         1.102663
 H         5.565648        -1.280319        -0.809663
 H         4.269739        -1.715181        -2.102667
 H         4.983280         0.003057        -1.920909
 H        -0.508127         0.610657         0.685912
 H        -0.332994         0.967558        -1.022026
 H        -0.697025        -0.600471        -0.591368
 H         2.045280         2.154598        -0.721029
 H         2.042074         1.760815         1.006074
 H         4.573841         1.214206         0.408134
 H         3.867485        -0.954455         1.837885
