19
Iteration:   326charge 0 multiplicity 1
 C         4.517412        -1.146674        -1.416656
 C         3.567815        -0.371626        -0.558855
 O         2.122922        -0.625117        -1.090963
 C         1.476114         0.085368        -0.074160
 C        -0.069778         0.109048        -0.393579
 C         2.167313         1.463899         0.010096
 C         3.552529         0.913700         0.228286
 C         3.355651        -0.471935         0.863412
 O         1.971946        -0.679212         1.169201
 H         5.331451        -0.582921        -1.992376
 H         5.077138        -1.909334        -0.806964
 H         3.920763        -1.683735        -2.192275
 H        -0.428968         0.781521         0.397186
 H        -0.130658         0.580662        -1.364942
 H        -0.605064        -0.847039        -0.423885
 H         2.016725         2.004051        -0.956452
 H         1.789585         2.093286         0.797235
 H         4.383900         1.526354         0.470959
 H         4.012145        -0.831565         1.608001
