19
Iteration:    68
 C         4.615036        -1.121032        -1.442269
 C         3.468599        -0.498750        -0.718017
 O         2.118540        -0.743234        -1.122067
 C         1.461523         0.038321        -0.037603
 C         0.040101        -0.015916        -0.269564
 C         2.129861         1.427023         0.077155
 C         3.454801         0.903415        -0.017413
 C         3.330785        -0.313672         0.892772
 O         1.977855        -0.420618         1.273530
 H         5.281423        -0.367910        -1.847525
 H         5.178923        -1.689959        -0.664385
 H         4.216477        -1.834451        -2.191327
 H        -0.487797         0.371847         0.612819
 H        -0.185317         0.592879        -1.096166
 H        -0.260897        -1.048699        -0.468081
 H         1.842237         2.249163        -0.616832
 H         2.042711         1.766816         1.081561
 H         4.393464         1.496520         0.092035
 H         4.112155        -0.699717         1.539284
