19
Iteration:  2740
 C         4.581607        -1.032164        -1.334683
 C         3.460997        -0.416419        -0.610178
 O         2.226673        -0.111866        -1.257408
 C         1.514047         0.209784        -0.126273
 C         0.065281         0.424214        -0.457458
 C         2.449819         1.467698         0.489425
 C         3.678767         0.494677         0.483899
 C         3.032981        -0.958499         0.761976
 O         1.639959        -0.875575         0.840912
 H         4.423289        -1.051789        -2.396332
 H         5.575537        -0.599802        -1.083725
 H         4.779914        -2.129680        -1.339361
 H        -0.631071         0.701955         0.400398
 H         0.049654         1.389196        -1.128753
 H        -0.432253        -0.389925        -1.001126
 H         2.375901         2.201914        -0.232882
 H         1.997080         1.815382         1.341970
 H         4.652821         0.559385         1.011299
 H         3.619868        -1.718517         1.286122
