19
Iteration:   595
 C         4.541942        -1.162536        -1.470343
 C         3.543978        -0.492676        -0.601227
 O         2.229785        -0.338868        -1.215137
 C         1.475595         0.180335        -0.090546
 C        -0.012579         0.048679        -0.307594
 C         2.326793         1.551148         0.160801
 C         3.573611         0.767684         0.406493
 C         3.193908        -0.640362         0.917559
 O         1.771034        -0.682869         0.980235
 H         4.788205        -0.495582        -2.298513
 H         5.520730        -1.181092        -1.028414
 H         4.172345        -2.047570        -1.937240
 H        -0.588697         0.263016         0.629785
 H        -0.280247         0.715964        -1.202057
 H        -0.216148        -1.008540        -0.613496
 H         2.345218         2.144915        -0.734068
 H         2.113360         2.240846         0.999206
 H         4.508866         1.310280         0.750078
 H         3.588347        -1.370201         1.692512
