19
Iteration:   145
 C         4.605350        -1.130093        -1.509243
 C         3.533552        -0.491766        -0.589034
 O         2.153237        -0.646484        -1.106923
 C         1.393473         0.176749        -0.278390
 C        -0.110842        -0.197073        -0.197395
 C         2.229777         1.482517         0.043065
 C         3.631477         0.865514         0.135511
 C         3.310787        -0.388414         1.008691
 O         1.893717        -0.401279         1.136744
 H         4.109224        -1.463526        -2.379609
 H         5.405953        -0.409918        -1.712992
 H         5.008680        -2.023845        -1.019830
 H        -0.365346         0.340139         0.711887
 H        -0.818827        -0.038485        -1.009697
 H        -0.007679        -1.234077         0.090793
 H         2.223861         2.326389        -0.703890
 H         1.838717         1.954220         0.895396
 H         4.486014         1.592163         0.109121
 H         3.930997        -0.834365         1.864106
