19
Iteration:  1094charge 0 multiplicity 1
 C         4.584516        -1.010043        -1.426790
 C         3.507735        -0.472332        -0.593324
 O         2.248899        -0.235529        -1.293744
 C         1.486273         0.223018        -0.154216
 C         0.117019         0.633980        -0.471640
 C         2.322043         1.292259         0.574903
 C         3.618202         0.526992         0.581577
 C         3.123064        -0.897538         0.759534
 O         1.663356        -0.882552         0.782120
 H         4.155139        -1.842070        -2.050435
 H         5.147937        -0.345038        -2.055830
 H         5.280809        -1.496005        -0.719634
 H        -0.492035         0.986607         0.392121
 H         0.138641         1.486459        -1.224530
 H        -0.295394        -0.244660        -1.005645
 H         2.262318         2.260286         0.050269
 H         1.922259         1.459583         1.616766
 H         4.393229         0.968447         1.143223
 H         3.467373        -1.657314         1.466575
