19
Iteration:  4643charge 0 multiplicity 1
 C         4.560926        -1.189223        -1.452477
 C         3.515105        -0.518811        -0.642342
 O         2.222957        -0.478235        -1.156178
 C         1.453790         0.177794        -0.124669
 C        -0.042951         0.125026        -0.383442
 C         2.203526         1.492099         0.143134
 C         3.533164         0.817693         0.216756
 C         3.248709        -0.521544         0.955927
 O         1.914938        -0.609608         1.168218
 H         5.053156        -2.034420        -0.833079
 H         4.008094        -1.526217        -2.443309
 H         5.376306        -0.619045        -1.840243
 H        -0.650757         0.477526         0.459167
 H        -0.354473         0.607786        -1.333838
 H        -0.161825        -0.928279        -0.539890
 H         2.091997         2.194617        -0.647226
 H         1.947978         1.746362         1.194518
 H         4.492835         1.323233         0.378241
 H         4.010200        -1.178350         1.545360
