19
Iteration:  1904charge 0 multiplicity 1
 C         4.646200        -1.053797        -1.354618
 C         3.519654        -0.395911        -0.554401
 O         2.298130        -0.115301        -1.309109
 C         1.457967         0.239687        -0.150024
 C         0.096953         0.734768        -0.331768
 C         2.426953         1.317810         0.513254
 C         3.616732         0.439878         0.679351
 C         3.019281        -0.966398         0.704529
 O         1.546675        -1.031856         0.631430
 H         4.215612        -1.347714        -2.289578
 H         5.488817        -0.320860        -1.703099
 H         5.082167        -1.982903        -0.990945
 H        -0.437241         0.935021         0.566466
 H         0.278490         1.630931        -0.871428
 H        -0.446422         0.090417        -0.985397
 H         2.764425         2.116286        -0.219707
 H         1.861451         1.729730         1.387223
 H         4.542752         0.726915         1.129555
 H         3.404290        -1.774775         1.410134
