19
Iteration:  1292charge 0 multiplicity 1
 C         4.634676        -0.938112        -1.506175
 C         3.470911        -0.504244        -0.601432
 O         2.277423        -0.044824        -1.254647
 C         1.528582         0.397259        -0.110867
 C         0.108431         0.534449        -0.617794
 C         2.547294         1.291899         0.617437
 C         3.619669         0.273923         0.710085
 C         2.918892        -1.041899         0.744834
 O         1.531723        -0.810578         0.844886
 H         4.353253        -0.760191        -2.574232
 H         5.633458        -0.415720        -1.196193
 H         4.771624        -2.060065        -1.598203
 H        -0.628803         0.521162         0.217583
 H        -0.037849         1.485410        -1.154823
 H        -0.261596        -0.336384        -1.242625
 H         2.775932         2.113384         0.032682
 H         2.224328         1.644480         1.567696
 H         4.532669         0.498818         1.240547
 H         3.424513        -1.911225         1.108161
