19
Iteration:  2204charge 0 multiplicity 1
 C         4.618616        -1.034021        -1.321613
 C         3.471453        -0.416230        -0.557328
 O         2.276501        -0.073597        -1.264656
 C         1.525865         0.290630        -0.112127
 C         0.116221         0.639060        -0.364113
 C         2.437890         1.381739         0.428066
 C         3.621942         0.408357         0.630343
 C         2.982035        -1.019704         0.759471
 O         1.620189        -1.017188         0.631845
 H         5.041709        -0.182844        -1.981171
 H         5.366841        -1.534782        -0.705202
 H         4.149039        -1.774575        -2.095325
 H        -0.385137         0.970987         0.503052
 H         0.073391         1.503255        -0.928965
 H        -0.509228        -0.125457        -0.821830
 H         2.509157         2.203168        -0.324966
 H         1.928477         1.890673         1.306233
 H         4.605912         0.646293         1.060080
 H         3.266374        -1.899559         1.228914
