19
Iteration:  3095
 C         4.571702        -1.149394        -1.504398
 C         3.501768        -0.460342        -0.604602
 O         2.174692        -0.271104        -1.209052
 C         1.496156         0.227045        -0.110604
 C         0.089843         0.314136        -0.487147
 C         2.327682         1.462539         0.392110
 C         3.637812         0.666373         0.473572
 C         3.150165        -0.746729         0.846537
 O         1.741923        -0.812643         0.971265
 H         4.031578        -1.560517        -2.394873
 H         5.201880        -0.366514        -1.863849
 H         5.002211        -2.007938        -0.967930
 H        -0.561339         0.591548         0.362298
 H        -0.213981         1.122420        -1.221436
 H        -0.257618        -0.725357        -0.725350
 H         2.383698         2.306260        -0.320384
 H         1.846379         1.773704         1.320098
 H         4.570165         1.069514         0.810388
 H         3.714093        -1.377891         1.419917
