19
Iteration:  1756charge 0 multiplicity 1
 C         4.660417        -1.014060        -1.321590
 C         3.433185        -0.478806        -0.632313
 O         2.329214        -0.016967        -1.399248
 C         1.482004         0.249258        -0.111985
 C         0.068114         0.741386        -0.436946
 C         2.412993         1.308000         0.634249
 C         3.669488         0.354349         0.652151
 C         2.986879        -1.067394         0.666249
 O         1.571819        -0.945474         0.734913
 H         4.593288        -2.163888        -1.543162
 H         4.848438        -0.562350        -2.305219
 H         5.645773        -0.785459        -0.782570
 H        -0.496998         0.929526         0.522997
 H         0.056318         1.754702        -1.036424
 H        -0.486423        -0.026711        -1.001687
 H         2.586043         2.150770         0.077474
 H         2.045489         1.670046         1.567390
 H         4.623293         0.530456         1.119143
 H         3.288569        -1.965189         1.276796
