19
Iteration:  4721
 C         4.613616        -1.038923        -1.388344
 C         3.478252        -0.486662        -0.713206
 O         2.180917        -0.590246        -1.210838
 C         1.452828         0.231753        -0.075734
 C        -0.061237         0.165196        -0.256774
 C         2.267809         1.471567         0.085721
 C         3.575493         0.703997         0.255370
 C         3.270218        -0.568933         0.940561
 O         1.804279        -0.619883         1.089121
 H         5.589011        -0.961911        -0.875056
 H         4.632036        -2.171832        -1.536621
 H         4.758123        -0.563981        -2.338866
 H        -0.444128         0.668195         0.612915
 H        -0.241772         0.684408        -1.177143
 H        -0.289689        -0.914003        -0.345978
 H         2.346696         2.122399        -0.711858
 H         1.950533         1.960590         1.008935
 H         4.554926         1.120702         0.252551
 H         3.895575        -1.071837         1.568836
