19
Iteration:  3947charge 0 multiplicity 1
 C         4.537573        -1.079424        -1.512528
 C         3.493600        -0.545453        -0.554514
 O         2.229391        -0.455771        -1.186756
 C         1.484706         0.208925        -0.153559
 C         0.003861         0.195303        -0.435297
 C         2.348527         1.495958         0.306243
 C         3.589281         0.698729         0.390738
 C         3.221358        -0.693674         0.912086
 O         1.742129        -0.612298         1.010506
 H         5.223230        -1.872476        -1.153454
 H         4.012162        -1.387862        -2.349446
 H         5.204407        -0.267308        -1.855803
 H        -0.572228         0.575229         0.482495
 H        -0.466473         0.753173        -1.258461
 H        -0.144143        -0.869734        -0.770457
 H         2.442330         2.313403        -0.399698
 H         1.968373         1.829551         1.321980
 H         4.527036         1.211072         0.415927
 H         3.797443        -1.312319         1.632186
