19
Iteration:  3093charge 0 multiplicity 1
 C         4.567881        -1.150113        -1.483085
 C         3.511143        -0.441457        -0.592694
 O         2.188552        -0.270466        -1.220019
 C         1.500025         0.235527        -0.128279
 C         0.082176         0.302235        -0.477728
 C         2.334744         1.466553         0.402035
 C         3.616570         0.654938         0.449223
 C         3.145336        -0.752818         0.860726
 O         1.742793        -0.809478         0.967954
 H         4.051290        -1.596318        -2.410358
 H         5.170723        -0.324694        -1.993626
 H         4.969027        -2.030753        -1.011558
 H        -0.540628         0.580833         0.404947
 H        -0.199184         1.101661        -1.194939
 H        -0.399979        -0.705287        -0.730628
 H         2.409355         2.299613        -0.270644
 H         1.893306         1.753852         1.280476
 H         4.592643         1.066317         0.842574
 H         3.742305        -1.395120         1.434594
