19
Iteration:  4897charge 0 multiplicity 1
 C         4.534609        -1.156138        -1.353959
 C         3.526317        -0.488649        -0.547970
 O         2.216240        -0.447064        -1.141848
 C         1.455971         0.120718        -0.077428
 C        -0.077405         0.038596        -0.261192
 C         2.220831         1.536680        -0.033404
 C         3.612975         0.837674         0.215035
 C         3.289270        -0.552505         0.833020
 O         1.867896        -0.655008         1.072723
 H         5.229384        -1.733340        -0.714874
 H         3.883731        -1.745014        -1.990296
 H         5.214643        -0.511615        -2.045938
 H        -0.511368         0.571278         0.588654
 H        -0.293989         0.671242        -1.151493
 H        -0.495267        -0.973467        -0.340718
 H         2.236916         2.174763        -0.906441
 H         1.851666         2.160741         0.848323
 H         4.420061         1.355577         0.682021
 H         4.055069        -1.125140         1.529412
