19
Iteration:  4217
 C         4.588669        -1.048668        -1.521074
 C         3.508177        -0.471458        -0.534044
 O         2.165772        -0.529009        -1.093849
 C         1.434446         0.093797         0.020247
 C         0.005574         0.293981        -0.367523
 C         2.274071         1.421029        -0.007127
 C         3.622279         0.807163         0.294007
 C         3.300240        -0.669116         0.891069
 O         1.784393        -0.692541         1.113377
 H         5.358256        -0.298060        -1.463582
 H         4.727739        -2.106535        -1.261920
 H         4.212450        -1.041420        -2.496077
 H        -0.762169         0.720145         0.315360
 H         0.061181         0.900411        -1.301479
 H        -0.386775        -0.763581        -0.665919
 H         2.243977         1.912784        -0.993412
 H         1.964350         2.056156         0.956527
 H         4.370957         1.552390         0.535762
 H         3.891135        -1.267379         1.448826
