19
Iteration:  3295
 C         4.681735        -1.055690        -1.453205
 C         3.479823        -0.538101        -0.600744
 O         2.166851        -0.450248        -1.275711
 C         1.461796         0.237786        -0.110167
 C         0.017342         0.304936        -0.309009
 C         2.331427         1.446955         0.268837
 C         3.614245         0.655311         0.352198
 C         3.169329        -0.726518         0.859569
 O         1.748525        -0.665961         1.014181
 H         5.459068        -0.373991        -1.198665
 H         4.819085        -2.089991        -1.235143
 H         4.419062        -1.024033        -2.495867
 H        -0.434248         0.581526         0.668494
 H        -0.245719         0.905393        -1.255443
 H        -0.577758        -0.649411        -0.560774
 H         2.293607         2.266537        -0.468082
 H         1.994465         1.804078         1.319726
 H         4.546235         1.128185         0.530003
 H         3.694492        -1.339488         1.467548
