19
Iteration:  1836
 C         4.530745        -0.963810        -1.569067
 C         3.510559        -0.557827        -0.529450
 O         2.336292        -0.062896        -1.277458
 C         1.549038         0.396891        -0.162604
 C         0.110990         0.491752        -0.546062
 C         2.462946         1.386756         0.677044
 C         3.629447         0.297778         0.810809
 C         2.948769        -1.040950         0.750881
 O         1.558170        -0.776936         0.727125
 H         4.058727        -1.027091        -2.605174
 H         5.397348        -0.195274        -1.645262
 H         4.875808        -2.008849        -1.365197
 H        -0.689240         0.690392         0.178394
 H         0.011879         1.121648        -1.404827
 H        -0.109644        -0.517748        -1.014359
 H         2.882503         2.213298         0.074962
 H         2.101790         1.593370         1.656693
 H         4.660217         0.543809         1.120639
 H         3.268200        -1.849066         1.306938
