19
Iteration:  2552
 C         4.543386        -0.966943        -1.497264
 C         3.494032        -0.490866        -0.557108
 O         2.200002        -0.365299        -1.248095
 C         1.468774         0.221016        -0.168105
 C         0.091636         0.559085        -0.584807
 C         2.375746         1.340409         0.578461
 C         3.643793         0.545762         0.544729
 C         3.142283        -0.868785         0.846580
 O         1.709168        -0.809983         0.881262
 H         4.577000        -0.175816        -2.267384
 H         5.452500        -1.193140        -1.003799
 H         4.090712        -1.770038        -2.124868
 H        -0.718820         0.877372         0.142868
 H         0.233589         1.466010        -1.257569
 H        -0.270093        -0.361695        -1.220204
 H         2.535226         2.298257         0.267201
 H         1.961821         1.472001         1.539449
 H         4.587878         0.965559         1.000884
 H         3.569908        -1.610731         1.519636
