19
Iteration:   263charge 0 multiplicity 1
 C         4.586990        -1.052128        -1.322614
 C         3.441456        -0.439198        -0.674585
 O         2.146084        -0.546315        -1.173822
 C         1.349565         0.177367         0.021627
 C        -0.087449        -0.091894        -0.170356
 C         2.287047         1.440144        -0.138781
 C         3.679016         0.867372         0.301968
 C         3.297290        -0.494686         0.853286
 O         1.914907        -0.555224         1.096649
 H         5.181912        -1.232180        -0.462173
 H         4.214678        -1.979410        -1.688901
 H         5.070370        -0.475298        -2.083740
 H        -0.852676         0.390732         0.435725
 H        -0.281761         0.362312        -1.186533
 H        -0.355236        -1.148393        -0.176998
 H         2.338989         1.788530        -1.216267
 H         2.170724         2.309656         0.423074
 H         4.664610         1.171146         0.043507
 H         3.909742        -1.191808         1.389454
