19
Iteration:   792charge 0 multiplicity 1
 C         4.590329        -1.033827        -1.438946
 C         3.518622        -0.501656        -0.585820
 O         2.235111        -0.342170        -1.225139
 C         1.492317         0.174454        -0.178636
 C        -0.037800         0.343458        -0.380901
 C         2.300009         1.417363         0.293190
 C         3.653997         0.653127         0.429733
 C         3.200948        -0.728220         0.922032
 O         1.698548        -0.775873         0.925227
 H         5.348628        -0.311195        -1.787698
 H         5.219817        -1.840739        -0.886959
 H         4.108066        -1.634868        -2.197959
 H        -0.369315         0.773497         0.573816
 H        -0.295553         1.209356        -1.050103
 H        -0.515112        -0.574243        -0.656965
 H         2.270377         2.222789        -0.436095
 H         1.931479         1.787995         1.177116
 H         4.676551         1.127662         0.553765
 H         3.747310        -1.522556         1.458520
