19
Iteration:  4851
 C         4.652826        -0.975863        -1.384793
 C         3.507661        -0.529564        -0.493763
 O         2.139771        -0.678634        -1.161782
 C         1.466035         0.076335        -0.137157
 C        -0.066826         0.241273        -0.258617
 C         2.247911         1.451379         0.015264
 C         3.593811         0.749983         0.132309
 C         3.221331        -0.624369         0.884229
 O         1.887289        -0.562080         1.095402
 H         5.561251        -1.169875        -0.815418
 H         4.269444        -1.695262        -2.153138
 H         4.918094        -0.095848        -1.938858
 H        -0.531230         0.585504         0.626586
 H        -0.258290         0.988979        -0.990521
 H        -0.592399        -0.687196        -0.553253
 H         1.933271         2.239051        -0.782997
 H         2.035142         1.906946         1.117557
 H         4.616995         1.259486         0.353790
 H         3.827418        -0.915194         1.789478
