19
Iteration:  4321
 C         4.568636        -1.246452        -1.405262
 C         3.536546        -0.406025        -0.628302
 O         2.218592        -0.510785        -1.202128
 C         1.428894         0.169279        -0.102462
 C        -0.018597         0.117090        -0.247530
 C         2.183592         1.505421         0.182383
 C         3.549669         0.814563         0.211350
 C         3.308001        -0.584134         0.878851
 O         1.860697        -0.613472         0.995441
 H         4.864769        -2.098687        -0.787756
 H         4.165663        -1.719578        -2.290337
 H         5.437906        -0.508056        -1.704574
 H        -0.432712         0.669282         0.554484
 H        -0.308169         0.616797        -1.123079
 H        -0.438362        -0.801852        -0.382890
 H         2.134766         2.474513        -0.363421
 H         1.963574         1.750015         1.189596
 H         4.477941         1.311925         0.511425
 H         3.871820        -0.894775         1.709296
