19
Iteration:  3861
 C         4.620876        -1.190143        -1.398504
 C         3.498367        -0.468187        -0.647668
 O         2.214147        -0.410845        -1.321860
 C         1.489264         0.149836        -0.143286
 C        -0.017542         0.343382        -0.332091
 C         2.227046         1.418236         0.397789
 C         3.652101         0.740215         0.326694
 C         3.177693        -0.674240         0.858236
 O         1.781321        -0.661961         0.970115
 H         5.604014        -0.611618        -1.142244
 H         4.780170        -2.180015        -1.052242
 H         4.602053        -1.169762        -2.528175
 H        -0.602218         0.681329         0.594933
 H        -0.058510         0.935645        -1.262103
 H        -0.478006        -0.684647        -0.419114
 H         1.933309         2.361827        -0.147570
 H         1.866059         1.472346         1.509044
 H         4.578790         1.075489         0.570664
 H         3.756956        -1.294249         1.440845
