19
Iteration:  4060
 C         4.581222        -0.976852        -1.427427
 C         3.494554        -0.470836        -0.638082
 O         2.094480        -0.482575        -1.202986
 C         1.462027         0.178273         0.010923
 C        -0.016554         0.213228        -0.409563
 C         2.385778         1.459419         0.107732
 C         3.684756         0.700529         0.350871
 C         3.206299        -0.662188         0.908840
 O         1.763794        -0.708299         1.120265
 H         4.264433        -1.343744        -2.387400
 H         5.280099        -0.330615        -1.572409
 H         5.169916        -1.712523        -0.915048
 H        -0.585504         0.680553         0.444810
 H        -0.156129         0.801251        -1.377864
 H        -0.244708        -0.851062        -0.662391
 H         2.279288         1.818105        -1.013829
 H         1.945543         2.251794         0.694774
 H         4.658700         1.060251         0.603941
 H         3.757982        -1.372945         1.360386
