19
Iteration:  4419
 C         4.569703        -1.129724        -1.395044
 C         3.508348        -0.483604        -0.602220
 O         2.145349        -0.537468        -1.162934
 C         1.466941         0.110703        -0.124351
 C         0.014374         0.134366        -0.252692
 C         2.233004         1.448186         0.064244
 C         3.626452         0.853521         0.219667
 C         3.277600        -0.543443         0.844743
 O         1.843525        -0.619902         1.104107
 H         4.133951        -1.922545        -1.990230
 H         5.012089        -0.403299        -2.032895
 H         5.337197        -1.457534        -0.583688
 H        -0.558047         0.523106         0.532738
 H        -0.295870         0.632618        -1.137213
 H        -0.356854        -0.851566        -0.326534
 H         1.967861         2.248409        -0.724542
 H         1.892974         1.964258         0.994219
 H         4.530852         1.471957         0.231543
 H         3.843796        -1.121645         1.607159
