19
Iteration:   409
 C         4.539616        -1.151349        -1.390585
 C         3.551933        -0.381931        -0.609266
 O         2.201404        -0.453675        -1.153076
 C         1.442052         0.051555        -0.016242
 C         0.022251         0.151900        -0.281581
 C         2.189372         1.410081         0.000579
 C         3.528559         0.826023         0.194833
 C         3.287042        -0.496012         0.902220
 O         1.905399        -0.700145         1.099089
 H         4.020239        -1.580205        -2.236656
 H         5.284469        -0.450660        -1.742445
 H         5.035693        -1.841835        -0.746941
 H        -0.701611         0.568863         0.487901
 H        -0.202438         0.872982        -1.074644
 H        -0.411953        -0.854816        -0.606809
 H         1.996066         1.845733        -0.972720
 H         1.736071         1.954754         0.933689
 H         4.487808         1.269803         0.365891
 H         4.007467        -0.998682         1.542985
