19
Iteration:  4647charge 0 multiplicity 1
 C         4.551728        -1.161735        -1.428570
 C         3.524953        -0.507177        -0.640690
 O         2.213797        -0.497077        -1.147114
 C         1.462322         0.175813        -0.108024
 C        -0.065121         0.146202        -0.381920
 C         2.199718         1.463570         0.116606
 C         3.572837         0.813631         0.229613
 C         3.266047        -0.521033         0.929075
 O         1.890130        -0.624587         1.182153
 H         5.052364        -2.093091        -1.083577
 H         4.057110        -1.532341        -2.280061
 H         5.327300        -0.530370        -1.916531
 H        -0.646868         0.502147         0.483918
 H        -0.275307         0.622109        -1.346208
 H        -0.121157        -0.966465        -0.614638
 H         2.160092         2.193893        -0.686022
 H         1.918483         1.825043         1.071964
 H         4.471721         1.354735         0.414522
 H         3.929756        -1.088252         1.493084
