19
Iteration:   300
 C         4.552932        -1.205974        -1.506441
 C         3.542535        -0.505117        -0.553179
 O         2.273833        -0.639641        -1.166197
 C         1.489548         0.110333        -0.094796
 C        -0.023697         0.074828        -0.313193
 C         2.114306         1.445769         0.124881
 C         3.559086         0.867599         0.120427
 C         3.261945        -0.312954         0.935158
 O         1.878838        -0.578509         1.155460
 H         5.540897        -0.714470        -1.548366
 H         4.796790        -2.246996        -1.244474
 H         4.199234        -1.171830        -2.545019
 H        -0.314170         0.844947         0.413061
 H        -0.112781         0.486774        -1.335521
 H        -0.571054        -0.884160        -0.247492
 H         1.742166         2.287148        -0.432729
 H         1.714059         1.574990         1.231745
 H         4.440450         1.550566         0.195384
 H         3.852774        -0.685093         1.815012
