19
Iteration:  3047
 C         4.674043        -1.115982        -1.416777
 C         3.510356        -0.458183        -0.620608
 O         2.186171        -0.218141        -1.261607
 C         1.479585         0.195905        -0.133071
 C         0.043496         0.368295        -0.320928
 C         2.372520         1.527260         0.328168
 C         3.539916         0.577276         0.483111
 C         3.101134        -0.823343         0.774626
 O         1.729100        -0.845799         0.876106
 H         4.449256        -2.212727        -1.299764
 H         4.648084        -0.739131        -2.526996
 H         5.463538        -0.978988        -0.680010
 H        -0.467073         0.624359         0.634478
 H        -0.176693         1.201300        -0.955488
 H        -0.377116        -0.624178        -0.600870
 H         2.471563         2.230113        -0.465967
 H         2.214441         2.051805         1.232118
 H         4.468355         1.010791         0.888940
 H         3.688460        -1.547288         1.475993
