19
Iteration:    18
 C         4.467070        -1.074239        -1.477437
 C         3.464458        -0.346651        -0.649183
 O         2.124887        -0.590688        -1.144764
 C         1.496120         0.068539        -0.045970
 C         0.107193        -0.141064        -0.109083
 C         2.206141         1.431567        -0.277111
 C         3.588497         0.983264         0.260132
 C         3.316077        -0.411020         0.968123
 O         1.887956        -0.568887         1.250354
 H         5.505877        -0.693093        -1.359146
 H         4.352798        -2.139207        -1.146144
 H         4.115212        -1.052398        -2.545110
 H        -0.472885         0.232279         0.742495
 H        -0.289911         0.335673        -1.065560
 H        -0.039488        -1.230009        -0.192195
 H         2.290567         1.325515        -1.365706
 H         1.704073         2.381642         0.126814
 H         4.550781         1.530362         0.129816
 H         4.016577        -1.006597         1.646848
