19
Iteration:  4193charge 0 multiplicity 1
 C         4.567713        -1.110020        -1.438109
 C         3.479800        -0.476042        -0.586278
 O         2.187687        -0.492644        -1.207505
 C         1.477613         0.094517        -0.131804
 C         0.003673         0.233782        -0.332815
 C         2.261739         1.512681         0.127979
 C         3.574897         0.717836         0.326724
 C         3.279146        -0.570834         0.950376
 O         1.836465        -0.695131         1.048084
 H         5.288886        -0.350388        -1.732486
 H         4.996960        -1.962527        -0.991590
 H         3.981028        -1.380083        -2.341309
 H        -0.459981         0.654254         0.620725
 H        -0.264705         0.942975        -1.182654
 H        -0.574492        -0.796471        -0.347820
 H         2.312202         2.000851        -0.932727
 H         1.782043         2.139516         0.974251
 H         4.537162         1.283159         0.450934
 H         3.966613        -1.106898         1.722850
