19
Iteration:   904
 C         4.551862        -1.130744        -1.355573
 C         3.500581        -0.408540        -0.607934
 O         2.302891        -0.189843        -1.310067
 C         1.486355         0.240067        -0.036343
 C        -0.017152         0.357884        -0.424926
 C         2.392862         1.380189         0.407487
 C         3.625831         0.624373         0.466942
 C         3.119692        -0.789590         0.830220
 O         1.689077        -0.863826         0.858796
 H         4.708687        -2.132926        -0.912091
 H         4.082178        -0.996091        -2.421004
 H         5.577510        -0.650193        -1.397868
 H        -0.666218         0.783811         0.411156
 H        -0.145829         1.113898        -1.202911
 H        -0.327869        -0.686514        -0.831430
 H         2.339608         2.201422        -0.300701
 H         2.058046         1.738258         1.328899
 H         4.550377         1.045987         0.682733
 H         3.715983        -1.593363         1.180957
