19
Iteration:   880
 C         4.560059        -1.181934        -1.504373
 C         3.538029        -0.446909        -0.596153
 O         2.200191        -0.234956        -1.199445
 C         1.476844         0.151938        -0.087759
 C         0.047874         0.431152        -0.470910
 C         2.261914         1.425848         0.395518
 C         3.575270         0.695038         0.556306
 C         3.157389        -0.782700         0.837948
 O         1.818054        -0.878214         0.856681
 H         4.146903        -2.242270        -1.528069
 H         4.786846        -0.570318        -2.517621
 H         5.457052        -1.323416        -0.872514
 H        -0.396224         0.978961         0.386246
 H         0.184980         1.241359        -1.198088
 H        -0.517941        -0.409222        -0.902150
 H         2.196375         2.159729        -0.425069
 H         1.910800         1.904320         1.250938
 H         4.456197         1.241126         0.918820
 H         3.758630        -1.435451         1.481906
