19
Iteration:  4390charge 0 multiplicity 1
 C         4.605269        -1.065878        -1.578359
 C         3.574287        -0.531764        -0.533947
 O         2.167106        -0.588951        -1.162805
 C         1.473888         0.066268        -0.120031
 C        -0.030639         0.131795        -0.259440
 C         2.262519         1.540515         0.024292
 C         3.607921         0.747582         0.312712
 C         3.250271        -0.532339         0.997443
 O         1.797256        -0.584052         1.095138
 H         4.367695        -2.152867        -1.749541
 H         4.353741        -0.500153        -2.515335
 H         5.568763        -0.661315        -1.103603
 H        -0.474199         0.711855         0.586799
 H        -0.346506         0.670967        -1.189926
 H        -0.670250        -0.784083        -0.585840
 H         2.266527         2.114361        -0.912872
 H         2.056883         2.108615         0.897994
 H         4.532968         1.325970         0.308794
 H         3.680233        -1.098373         1.921946
