19
Iteration:  2322charge 0 multiplicity 1
 C         4.686526        -1.102833        -1.384649
 C         3.472091        -0.471288        -0.595566
 O         2.225384        -0.151155        -1.355380
 C         1.514206         0.275637        -0.131943
 C         0.120815         0.587886        -0.425905
 C         2.329069         1.332307         0.621575
 C         3.609682         0.497832         0.580441
 C         3.060626        -0.935500         0.744309
 O         1.642075        -0.849561         0.712436
 H         5.264450        -1.972641        -0.915934
 H         4.171923        -1.499894        -2.204288
 H         5.467633        -0.403981        -1.815968
 H        -0.452076         0.921218         0.493655
 H        -0.006841         1.514485        -1.069826
 H        -0.407317        -0.358392        -0.803576
 H         2.355010         2.290840         0.250376
 H         1.935335         1.400060         1.602555
 H         4.608005         0.820491         0.985295
 H         3.348090        -1.660762         1.528080
