19
Iteration:  1883
 C         4.585299        -1.043591        -1.403403
 C         3.464897        -0.446640        -0.611062
 O         2.294325        -0.075204        -1.284681
 C         1.488996         0.235664        -0.054346
 C         0.132132         0.737921        -0.526423
 C         2.389119         1.319279         0.582186
 C         3.533347         0.383644         0.670961
 C         3.080690        -1.041317         0.703069
 O         1.665210        -0.929345         0.758241
 H         4.383054        -1.195562        -2.414552
 H         5.434769        -0.324397        -1.396397
 H         4.890930        -1.994405        -1.006755
 H        -0.423714         0.912782         0.354256
 H         0.153529         1.665264        -1.048295
 H        -0.481911         0.114856        -1.082293
 H         2.563271         2.052146        -0.284274
 H         1.815148         1.616193         1.518420
 H         4.403872         0.809745         1.122674
 H         3.496199        -2.078690         1.001671
