19
Iteration:  2288
 C         4.566699        -1.019919        -1.524118
 C         3.581534        -0.481017        -0.539137
 O         2.316108        -0.011900        -1.246590
 C         1.490737         0.304560        -0.087280
 C         0.054032         0.513794        -0.553923
 C         2.467298         1.362601         0.490620
 C         3.656702         0.445761         0.716602
 C         2.987010        -1.029258         0.807336
 O         1.555770        -0.906104         0.797703
 H         5.608482        -1.252841        -1.241273
 H         4.045971        -1.932967        -1.810098
 H         4.494471        -0.381128        -2.408739
 H        -0.454309         0.712585         0.424381
 H        -0.030772         1.292903        -1.422259
 H        -0.268633        -0.488816        -0.940997
 H         2.701292         2.010287        -0.302059
 H         2.059322         1.847591         1.313967
 H         4.604527         0.818273         1.159946
 H         3.322665        -1.844513         1.366858
