19
Iteration:  2875
 C         4.638524        -1.036111        -1.515564
 C         3.552084        -0.506277        -0.559070
 O         2.263128        -0.238649        -1.229887
 C         1.478663         0.256455        -0.127947
 C         0.012052         0.535085        -0.417069
 C         2.354210         1.400763         0.360245
 C         3.593122         0.540637         0.579117
 C         3.082437        -0.877588         0.858434
 O         1.674982        -0.910112         0.841074
 H         5.448213        -0.254402        -1.598091
 H         4.890720        -1.932586        -0.950744
 H         4.140262        -1.093735        -2.457400
 H        -0.269900         0.656310         0.667492
 H        -0.119517         1.359197        -1.157534
 H        -0.607023        -0.344913        -0.898341
 H         2.574996         2.129249        -0.477857
 H         2.008720         1.907182         1.302787
 H         4.420976         1.031144         0.943716
 H         3.651495        -1.592332         1.384531
