19
Iteration:  1176charge 0 multiplicity 1
 C         4.642537        -1.035496        -1.464759
 C         3.524745        -0.519911        -0.585916
 O         2.331795        -0.043101        -1.300843
 C         1.491926         0.399682        -0.146954
 C        -0.004273         0.505180        -0.459550
 C         2.415074         1.328924         0.531954
 C         3.626124         0.338677         0.730855
 C         3.023059        -0.995017         0.730103
 O         1.602485        -0.830061         0.764917
 H         5.593803        -1.076871        -0.912660
 H         4.312172        -2.015441        -1.870734
 H         4.642849        -0.224468        -2.225694
 H        -0.605568         0.628983         0.435791
 H        -0.166304         1.342164        -1.183227
 H        -0.322925        -0.416703        -0.907152
 H         2.521554         2.311163        -0.118127
 H         2.045726         1.648869         1.618919
 H         4.620111         0.544918         1.093025
 H         3.461795        -1.785478         1.285749
