19
Iteration:   380
 C         4.619790        -1.134730        -1.436308
 C         3.555466        -0.520579        -0.599521
 O         2.192436        -0.642617        -1.177751
 C         1.444424         0.168675        -0.216748
 C        -0.098800         0.005135        -0.197875
 C         2.326880         1.551250         0.101174
 C         3.573518         0.835038         0.243423
 C         3.253473        -0.487874         0.872688
 O         1.782790        -0.512671         1.077369
 H         4.485888        -0.853439        -2.551007
 H         5.511269        -0.465986        -1.172244
 H         5.040348        -2.151233        -1.265093
 H        -0.403126         0.235802         0.807263
 H        -0.772927         0.478949        -0.884604
 H        -0.419680        -1.016199        -0.238302
 H         2.273600         2.498518        -0.499330
 H         1.858787         1.860088         1.027526
 H         4.541980         1.236926         0.421548
 H         3.866686        -1.093387         1.435652
