19
Iteration:  2657
 C         4.632683        -1.032815        -1.418740
 C         3.528063        -0.418970        -0.634502
 O         2.197095        -0.180850        -1.250174
 C         1.462431         0.205709        -0.113745
 C        -0.011311         0.523370        -0.489240
 C         2.380192         1.380586         0.422020
 C         3.589518         0.514190         0.584542
 C         3.106077        -0.912548         0.777433
 O         1.721284        -0.908483         0.878371
 H         5.270695        -0.325819        -1.894740
 H         5.292193        -1.604668        -0.697057
 H         4.101654        -1.761018        -1.963310
 H        -0.323590         0.915409         0.428216
 H         0.166564         1.294007        -1.164710
 H        -0.581769        -0.256488        -0.916103
 H         2.429564         2.185571        -0.411972
 H         2.093878         1.774526         1.461361
 H         4.558631         0.977851         0.919215
 H         3.723609        -1.640740         1.327934
