19
Iteration:   817
 C         4.612911        -0.955665        -1.415146
 C         3.456360        -0.538664        -0.626167
 O         2.201961        -0.310749        -1.302191
 C         1.487273         0.295474        -0.015969
 C         0.009104         0.269744        -0.403576
 C         2.411848         1.424224         0.257256
 C         3.615259         0.590489         0.517678
 C         3.121942        -0.862904         0.781092
 O         1.709213        -0.714971         0.993949
 H         4.768454        -0.341191        -2.277396
 H         5.585204        -0.954726        -0.938679
 H         4.423694        -2.024953        -1.614983
 H        -0.604827         0.703320         0.481584
 H        -0.241522         1.005994        -1.203329
 H        -0.157674        -0.866289        -0.650675
 H         2.417181         1.894534        -0.775455
 H         2.062033         2.199550         0.965925
 H         4.599844         0.803587         0.938885
 H         3.671150        -1.432176         1.542508
