19
Iteration:  4347charge 0 multiplicity 1
 C         4.624599        -1.099873        -1.457647
 C         3.436862        -0.509200        -0.587759
 O         2.135076        -0.493318        -1.159856
 C         1.430038         0.120741        -0.062900
 C        -0.015752         0.121515        -0.343946
 C         2.283905         1.458654         0.104240
 C         3.620744         0.828395         0.230202
 C         3.275968        -0.604378         0.910730
 O         1.873429        -0.601473         1.144617
 H         4.886279        -2.113334        -1.133871
 H         4.236030        -1.373059        -2.460384
 H         5.372127        -0.353496        -1.531981
 H        -0.672030         0.662164         0.386265
 H        -0.098806         0.728472        -1.308144
 H        -0.580609        -0.837486        -0.686596
 H         2.167242         2.210736        -0.664740
 H         1.873763         2.013187         0.933086
 H         4.631331         1.212515         0.186518
 H         3.858352        -1.175699         1.698870
