19
Iteration:  2886
 C         4.629476        -1.048224        -1.439849
 C         3.527219        -0.373377        -0.602315
 O         2.265619        -0.203303        -1.200739
 C         1.483174         0.129776        -0.132195
 C         0.044843         0.530230        -0.378099
 C         2.358443         1.369249         0.338591
 C         3.622017         0.578782         0.560999
 C         3.084937        -0.888494         0.815543
 O         1.648935        -0.884595         0.830952
 H         5.639956        -0.527760        -1.528759
 H         4.983252        -2.068495        -1.233285
 H         4.356054        -1.293909        -2.446769
 H        -0.512630         0.868701         0.558740
 H        -0.054575         1.504654        -0.896994
 H        -0.546968        -0.425430        -0.736559
 H         2.318063         2.053821        -0.561311
 H         1.851803         1.919706         1.174710
 H         4.540911         0.773259         0.958740
 H         3.472051        -1.726504         1.352353
