19
Iteration:   558
 C         4.615009        -1.116398        -1.434474
 C         3.453071        -0.408458        -0.605260
 O         2.175696        -0.489398        -1.179282
 C         1.471441         0.084098        -0.101342
 C         0.020268         0.179500        -0.403610
 C         2.253203         1.520973         0.211254
 C         3.569573         0.809524         0.286426
 C         3.263922        -0.644044         0.898927
 O         1.830201        -0.690794         1.083059
 H         5.381673        -0.302930        -1.557560
 H         4.791132        -2.159961        -1.038142
 H         4.210036        -1.441852        -2.497324
 H        -0.550164         0.630830         0.415742
 H        -0.147090         0.903530        -1.169736
 H        -0.408507        -0.794187        -0.709128
 H         2.133876         2.267804        -0.577549
 H         2.044283         1.856898         1.239557
 H         4.447139         1.337436         0.480578
 H         3.930385        -1.270908         1.415022
