19
Iteration:   227
 C         4.679960        -1.148718        -1.392033
 C         3.511242        -0.495178        -0.539709
 O         2.222339        -0.630686        -1.130267
 C         1.454859         0.136030        -0.206779
 C        -0.026115         0.045606        -0.111906
 C         2.100002         1.465127        -0.017261
 C         3.547811         0.852788         0.102709
 C         3.258408        -0.413550         0.881573
 O         1.846121        -0.511350         1.081727
 H         5.004531        -2.198053        -0.989397
 H         4.371571        -1.425319        -2.445549
 H         5.661531        -0.615686        -1.476167
 H        -0.328420         0.444674         0.887639
 H        -0.457432         0.564236        -0.940303
 H        -0.153130        -1.069118        -0.184355
 H         1.907558         2.248603        -0.742220
 H         1.914448         1.751252         1.056405
 H         4.533139         1.362900        -0.069296
 H         3.819650        -0.843968         1.760385
