19
Iteration:  1840charge 0 multiplicity 1
 C         4.545156        -0.981524        -1.579132
 C         3.488937        -0.549713        -0.593393
 O         2.360349        -0.091425        -1.247339
 C         1.526664         0.393792        -0.165630
 C         0.103243         0.479252        -0.561078
 C         2.476254         1.385227         0.701231
 C         3.619035         0.319984         0.776052
 C         2.944718        -1.015148         0.783261
 O         1.544785        -0.773430         0.715441
 H         4.108220        -0.957308        -2.519506
 H         5.309981        -0.229713        -1.584975
 H         4.931479        -1.948371        -1.380255
 H        -0.589354         0.707218         0.222688
 H         0.003187         1.184150        -1.384972
 H        -0.085523        -0.470984        -0.976923
 H         3.018658         2.267640         0.216449
 H         2.136056         1.542827         1.788464
 H         4.597875         0.554470         1.140856
 H         3.316223        -1.941815         1.325336
