19
Iteration:  3465charge 0 multiplicity 1
 C         4.663849        -1.106119        -1.449044
 C         3.458342        -0.508338        -0.602306
 O         2.239997        -0.480215        -1.255228
 C         1.486572         0.181785        -0.238640
 C        -0.040828         0.331512        -0.254905
 C         2.312225         1.423948         0.234789
 C         3.561017         0.689469         0.309585
 C         3.196583        -0.662652         0.887326
 O         1.775832        -0.648854         1.026200
 H         5.429789        -1.347727        -0.719150
 H         4.335667        -2.143514        -1.773424
 H         4.914554        -0.226656        -2.067211
 H        -0.412315         0.628845         0.707748
 H        -0.419907         0.977419        -1.054024
 H        -0.501955        -0.616361        -0.333676
 H         2.203370         2.322739        -0.421142
 H         1.983158         1.704706         1.226596
 H         4.557968         1.109904         0.529110
 H         3.688778        -1.293444         1.599026
