19
Iteration:  2167
 C         4.696424        -1.082378        -1.473856
 C         3.579206        -0.550743        -0.607678
 O         2.304320        -0.047030        -1.292553
 C         1.514613         0.366645        -0.129842
 C         0.017682         0.558216        -0.477243
 C         2.386828         1.348552         0.635354
 C         3.627535         0.361179         0.619977
 C         2.877925        -1.006982         0.746172
 O         1.608383        -0.754208         0.770392
 H         4.691859        -0.658629        -2.480839
 H         5.723031        -0.777564        -1.173377
 H         4.575617        -2.143439        -1.570504
 H        -0.458154         0.580838         0.505980
 H        -0.081667         1.349975        -1.266475
 H        -0.223042        -0.396007        -0.877608
 H         2.595689         2.292856         0.261912
 H         2.033890         1.270797         1.603987
 H         4.581891         0.621590         1.052801
 H         3.232745        -1.996670         1.213786
