19
Iteration:  2857
 C         4.563319        -0.978637        -1.476494
 C         3.464781        -0.562495        -0.565514
 O         2.278600        -0.283574        -1.297130
 C         1.529758         0.229359        -0.146065
 C         0.009821         0.470659        -0.463515
 C         2.411122         1.383441         0.471035
 C         3.624206         0.524345         0.561390
 C         3.086292        -0.879191         0.875238
 O         1.687734        -0.752803         0.861113
 H         5.085431        -0.068933        -1.861901
 H         5.219174        -1.813800        -1.230368
 H         4.097597        -1.141988        -2.525272
 H        -0.665672         0.665381         0.345858
 H         0.013255         1.316088        -1.124126
 H        -0.241227        -0.472922        -0.852886
 H         2.434335         2.314011        -0.178122
 H         1.849284         1.685562         1.428344
 H         4.661697         0.697899         0.915227
 H         3.496750        -1.604817         1.662448
