19
Iteration:  3965
 C         4.507676        -1.098760        -1.404705
 C         3.480329        -0.423229        -0.656917
 O         2.157190        -0.326889        -1.165248
 C         1.456146         0.176537        -0.010839
 C         0.021125         0.168429        -0.451733
 C         2.297892         1.441753         0.213318
 C         3.708768         0.704806         0.354477
 C         3.174342        -0.656887         0.885432
 O         1.829563        -0.736989         1.031948
 H         4.775965        -2.061815        -0.995657
 H         4.205415        -1.478222        -2.507511
 H         5.429531        -0.566896        -1.665308
 H        -0.597029         0.623864         0.235264
 H         0.058755         0.862991        -1.297295
 H        -0.210838        -0.785992        -0.883524
 H         2.191426         2.069524        -0.637513
 H         2.012315         1.997640         1.089463
 H         4.592082         1.091066         0.779190
 H         3.681511        -1.230678         1.554022
