19
Iteration:  4965
 C         4.499840        -1.122492        -1.367479
 C         3.533824        -0.405767        -0.577859
 O         2.159755        -0.493198        -1.177616
 C         1.437929         0.152075        -0.070313
 C        -0.028969         0.081495        -0.329553
 C         2.228906         1.430318         0.039685
 C         3.601875         0.775141         0.273645
 C         3.319199        -0.478626         0.962071
 O         1.873361        -0.684642         1.044650
 H         5.603320        -0.894375        -1.242576
 H         4.314452        -2.205695        -1.220754
 H         4.362377        -1.041924        -2.556575
 H        -0.446196         0.873303         0.391730
 H         0.032375         0.655544        -1.358209
 H        -0.443028        -0.951077        -0.354539
 H         2.135384         1.970901        -0.873533
 H         2.047843         2.076568         0.832959
 H         4.519540         1.422858         0.400083
 H         3.916720        -0.999535         1.633384
