19
Iteration:   229charge 0 multiplicity 1
 C         4.688127        -1.145253        -1.386234
 C         3.507354        -0.503877        -0.547682
 O         2.211043        -0.601088        -1.127313
 C         1.448353         0.156691        -0.212050
 C        -0.013014         0.026647        -0.103827
 C         2.101661         1.467706        -0.039931
 C         3.543428         0.838528         0.101751
 C         3.250489        -0.429755         0.885462
 O         1.851385        -0.522366         1.092300
 H         5.027724        -2.110659        -0.954306
 H         4.390938        -1.460839        -2.378855
 H         5.605151        -0.584602        -1.479777
 H        -0.299072         0.445090         0.888611
 H        -0.489514         0.510641        -0.939282
 H        -0.188212        -1.076708        -0.178191
 H         1.948043         2.290457        -0.785954
 H         1.979959         1.836019         0.957234
 H         4.542623         1.329507        -0.008391
 H         3.848783        -0.879960         1.749016
