19
Iteration:  4785charge 0 multiplicity 1
 C         4.485385        -1.340893        -1.443438
 C         3.534434        -0.410999        -0.578320
 O         2.228962        -0.420387        -1.164234
 C         1.475241         0.132931        -0.172200
 C         0.053822         0.041421        -0.290189
 C         2.173520         1.534277         0.177430
 C         3.596526         0.872551         0.335119
 C         3.281344        -0.469912         0.885534
 O         1.846403        -0.636253         0.979943
 H         5.489586        -0.870599        -1.427748
 H         4.433468        -2.460283        -1.091592
 H         4.138844        -1.252282        -2.445402
 H        -0.375671         0.617498         0.497089
 H        -0.299216         0.450458        -1.204285
 H        -0.394085        -0.940244        -0.341284
 H         2.031641         2.358852        -0.616594
 H         1.805090         1.624509         1.279304
 H         4.521701         1.394599         0.606497
 H         3.929419        -1.072708         1.404437
