19
Iteration:  1389charge 0 multiplicity 1
 C         4.666410        -0.962547        -1.462344
 C         3.499236        -0.522375        -0.597826
 O         2.326242        -0.052200        -1.271249
 C         1.548166         0.436719        -0.229526
 C         0.039801         0.570275        -0.543529
 C         2.467011         1.295708         0.772869
 C         3.650637         0.233506         0.683809
 C         2.951869        -1.032881         0.737484
 O         1.508650        -0.765635         0.676114
 H         4.570411        -2.079875        -1.389139
 H         4.495819        -0.755012        -2.593187
 H         5.730473        -0.811820        -1.131858
 H        -0.564450         0.803655         0.318509
 H        -0.114263         1.332903        -1.274846
 H        -0.380586        -0.407130        -0.798355
 H         2.780254         2.290454         0.607817
 H         2.185194         1.286145         1.786571
 H         4.668954         0.407835         0.911963
 H         3.070498        -1.944943         1.417916
