19
Iteration:  1855charge 0 multiplicity 1
 C         4.612636        -0.988802        -1.536501
 C         3.520265        -0.520888        -0.563900
 O         2.276535        -0.081010        -1.243435
 C         1.531557         0.305372        -0.122722
 C         0.096070         0.548568        -0.633997
 C         2.531546         1.316657         0.763628
 C         3.666384         0.374139         0.564058
 C         2.941192        -0.963979         0.815851
 O         1.529389        -0.808432         0.737297
 H         4.290204        -1.053941        -2.650289
 H         5.455718        -0.315162        -1.519897
 H         5.000638        -2.039454        -1.320458
 H        -0.426711         0.760177         0.370958
 H        -0.154791         1.470568        -1.307915
 H        -0.471004        -0.371906        -1.011978
 H         2.475730         2.300239         0.413339
 H         2.042324         1.215643         1.723856
 H         4.574095         0.484824         1.191502
 H         3.204106        -1.819658         1.441587
