19
Iteration:  4355charge 0 multiplicity 1
 C         4.507178        -1.046930        -1.430714
 C         3.480636        -0.479322        -0.586225
 O         2.146324        -0.510992        -1.153540
 C         1.446371         0.107413        -0.028389
 C        -0.041845         0.139756        -0.389293
 C         2.244093         1.492212         0.054292
 C         3.613963         0.721416         0.235977
 C         3.292182        -0.645531         0.926168
 O         1.885664        -0.592642         1.136994
 H         4.985311        -1.951460        -1.047144
 H         4.242299        -1.104616        -2.469948
 H         5.514541        -0.408419        -1.465583
 H        -0.567607         0.614587         0.405079
 H         0.030411         0.791529        -1.200285
 H        -0.380359        -0.873435        -0.494064
 H         2.307615         2.110650        -0.902177
 H         2.056234         2.081244         0.895989
 H         4.549981         1.289027         0.224307
 H         3.918378        -1.114914         1.625919
