19
Iteration:  1391charge 0 multiplicity 1
 C         4.673129        -0.969041        -1.464814
 C         3.501081        -0.515132        -0.589114
 O         2.322760        -0.058446        -1.261989
 C         1.544069         0.426804        -0.228682
 C         0.056556         0.558286        -0.551169
 C         2.456628         1.304717         0.783178
 C         3.626387         0.225666         0.674759
 C         2.951798        -1.049494         0.732418
 O         1.524818        -0.740920         0.685346
 H         4.567012        -2.067944        -1.448190
 H         4.397822        -0.746294        -2.650677
 H         5.749756        -0.709924        -1.138980
 H        -0.587809         0.836972         0.303841
 H        -0.100662         1.388782        -1.342563
 H        -0.378143        -0.389588        -0.803995
 H         2.877422         2.209718         0.587662
 H         2.176743         1.276127         1.793365
 H         4.670594         0.453569         0.931710
 H         3.028848        -1.986252         1.381653
