19
Iteration:  4536
 C         4.624083        -0.978625        -1.472099
 C         3.426948        -0.605174        -0.565106
 O         2.093726        -0.645820        -1.130540
 C         1.455275         0.131904        -0.069614
 C         0.015861         0.181208        -0.338912
 C         2.242612         1.403478         0.049059
 C         3.641208         0.770130         0.215381
 C         3.276448        -0.494528         0.923554
 O         1.893661        -0.580309         1.145087
 H         4.335749        -1.881554        -2.073027
 H         4.758758        -0.120366        -2.204667
 H         5.402800        -1.010725        -0.790288
 H        -0.644921         0.654427         0.470963
 H        -0.133823         0.787807        -1.300395
 H        -0.464432        -0.790990        -0.618180
 H         2.144446         2.025600        -0.827550
 H         1.956680         2.072733         0.865544
 H         4.500434         1.462089         0.404955
 H         3.842535        -1.242946         1.622524
