19
Iteration:   308charge 0 multiplicity 1
 C         4.541694        -1.207738        -1.504247
 C         3.548593        -0.446111        -0.628924
 O         2.310107        -0.651883        -1.078751
 C         1.426277         0.035011        -0.088669
 C        -0.050842         0.160273        -0.335004
 C         2.107850         1.384301         0.147978
 C         3.562606         0.895744         0.150804
 C         3.353457        -0.328065         1.008308
 O         1.889951        -0.571122         1.071538
 H         5.400733        -0.667543        -1.715425
 H         4.819776        -2.145478        -1.084411
 H         4.031324        -1.415115        -2.439045
 H        -0.649118         0.751337         0.354986
 H        -0.273392         0.458245        -1.418502
 H        -0.589324        -0.781472        -0.299663
 H         1.842214         2.242391        -0.513043
 H         1.744579         1.724623         1.095905
 H         4.396023         1.591924         0.078803
 H         3.897060        -0.865548         1.740552
