19
Iteration:  2065
 C         4.679769        -1.024184        -1.334130
 C         3.413790        -0.524189        -0.638642
 O         2.283744        -0.070384        -1.330232
 C         1.544501         0.387665        -0.153207
 C         0.027873         0.585716        -0.433893
 C         2.528083         1.330387         0.601598
 C         3.642941         0.366151         0.658854
 C         2.929167        -1.078787         0.636601
 O         1.572082        -0.815220         0.787525
 H         4.518135        -1.737878        -2.101831
 H         5.185772        -0.122230        -1.720941
 H         5.280692        -1.506141        -0.564348
 H        -0.581540         0.836700         0.492512
 H        -0.134851         1.444738        -1.203243
 H        -0.224527        -0.428773        -0.992118
 H         2.563720         2.229443        -0.034683
 H         2.132995         1.848638         1.463150
 H         4.659856         0.368934         1.068231
 H         3.389024        -2.025709         0.899534
