19
Iteration:  3707
 C         4.625980        -1.160329        -1.441941
 C         3.546371        -0.487271        -0.561085
 O         2.225380        -0.391292        -1.220371
 C         1.479047         0.208227        -0.189420
 C        -0.004700         0.164132        -0.264607
 C         2.302210         1.450686         0.245415
 C         3.570266         0.687218         0.313625
 C         3.181247        -0.660588         0.867905
 O         1.748102        -0.589848         0.955318
 H         4.871788        -2.096089        -0.929658
 H         4.054961        -1.405811        -2.259975
 H         5.358469        -0.398042        -1.665703
 H        -0.446151         0.636358         0.597293
 H        -0.527618         0.652180        -1.100035
 H        -0.254200        -0.910931        -0.379977
 H         2.399720         2.336591        -0.366779
 H         2.028425         1.830225         1.320187
 H         4.571035         1.263495         0.443747
 H         3.648188        -1.382210         1.616530
