19
Iteration:  3360charge 0 multiplicity 1
 C         4.451293        -1.159902        -1.439291
 C         3.508317        -0.487237        -0.607131
 O         2.221926        -0.322096        -1.205668
 C         1.427053         0.191315        -0.057331
 C         0.017172         0.160684        -0.354768
 C         2.295760         1.445313         0.191678
 C         3.660604         0.729586         0.408989
 C         3.230217        -0.671716         0.871322
 O         1.837799        -0.688025         0.975286
 H         5.249406        -1.685360        -0.890578
 H         3.875703        -1.751750        -2.173419
 H         5.052456        -0.463440        -2.094331
 H        -0.564965         0.730173         0.388470
 H        -0.206151         0.874669        -1.237876
 H        -0.384431        -0.869854        -0.652516
 H         2.431392         2.078078        -0.661824
 H         2.043476         2.041927         1.112213
 H         4.499592         1.269210         0.823964
 H         3.650011        -1.308972         1.591898
