19
Iteration:   977
 C         4.565603        -0.981678        -1.495462
 C         3.497657        -0.483396        -0.602639
 O         2.248350        -0.299270        -1.174535
 C         1.513244         0.223246        -0.142522
 C         0.092955         0.619678        -0.525680
 C         2.289846         1.354665         0.357797
 C         3.534590         0.564965         0.591002
 C         3.128103        -0.877416         0.840980
 O         1.742511        -0.957705         0.925970
 H         5.377388        -0.258555        -1.417592
 H         4.774805        -2.043916        -1.129130
 H         4.227278        -1.036067        -2.507649
 H        -0.514751         1.008328         0.286254
 H         0.093136         1.479805        -1.150468
 H        -0.284953        -0.240352        -1.050185
 H         2.576739         2.195021        -0.359741
 H         2.091434         1.878924         1.310829
 H         4.413527         0.948104         0.983796
 H         3.608647        -1.624654         1.409267
