19
Iteration:  4163charge 0 multiplicity 1
 C         4.608945        -1.200879        -1.371786
 C         3.506940        -0.446812        -0.676823
 O         2.213351        -0.407549        -1.189391
 C         1.454965         0.188234        -0.153903
 C        -0.064074         0.107839        -0.293476
 C         2.262576         1.485605         0.251759
 C         3.656679         0.720722         0.216034
 C         3.199831        -0.625482         0.838460
 O         1.781065        -0.568057         1.016084
 H         5.299981        -0.647076        -1.985152
 H         5.379204        -1.566753        -0.660377
 H         4.110771        -1.887169        -2.004557
 H        -0.462013         0.416900         0.667420
 H        -0.426657         0.663982        -1.120486
 H        -0.190594        -0.981918        -0.177017
 H         2.142696         2.235510        -0.482780
 H         1.998091         1.877655         1.303646
 H         4.592634         1.124012         0.644689
 H         3.816679        -1.120764         1.536041
