19
Iteration:  3784
 C         4.612247        -1.090449        -1.517197
 C         3.474200        -0.514485        -0.581375
 O         2.149226        -0.498910        -1.194383
 C         1.465145         0.213382        -0.095474
 C         0.004528         0.251450        -0.466578
 C         2.274791         1.456926         0.318311
 C         3.664643         0.662297         0.314320
 C         3.239649        -0.637621         0.944362
 O         1.778075        -0.641514         0.999944
 H         5.494718        -1.256998        -0.859933
 H         4.100283        -1.811888        -2.016718
 H         5.024092        -0.329081        -2.236405
 H        -0.466752         0.644878         0.468070
 H        -0.262769         0.988036        -1.270333
 H        -0.434327        -0.728729        -0.784550
 H         2.312389         2.423319        -0.188447
 H         1.913292         1.550617         1.439889
 H         4.646856         1.178066         0.502674
 H         3.695420        -1.265487         1.738269
