19
Iteration:   847charge 0 multiplicity 1
 C         4.563064        -0.989790        -1.472564
 C         3.529316        -0.492791        -0.541088
 O         2.218552        -0.319910        -1.201823
 C         1.510231         0.215306        -0.162367
 C         0.003343         0.297975        -0.460236
 C         2.388000         1.376955         0.396482
 C         3.653608         0.612700         0.388787
 C         3.077457        -0.808216         0.866390
 O         1.721447        -0.700435         0.937986
 H         4.148174        -1.286087        -2.490596
 H         5.522931        -0.348235        -1.709610
 H         4.990704        -1.897707        -1.048481
 H        -0.465024         0.709074         0.439930
 H        -0.177739         1.048326        -1.256642
 H        -0.680475        -0.477863        -0.702892
 H         2.298307         2.238302        -0.263033
 H         2.115076         1.528977         1.375589
 H         4.660722         0.993242         0.742946
 H         3.530347        -1.479858         1.626798
