19
Iteration:  1272
 C         4.517230        -0.921297        -1.491500
 C         3.454611        -0.531174        -0.553567
 O         2.331423        -0.027185        -1.248375
 C         1.448702         0.305080        -0.114332
 C         0.053925         0.530329        -0.560803
 C         2.573558         1.418863         0.572354
 C         3.688317         0.287862         0.815634
 C         2.973209        -1.103859         0.751141
 O         1.591218        -0.847496         0.683721
 H         4.512288        -0.250456        -2.289564
 H         5.445682        -0.710146        -0.838934
 H         4.395399        -1.952197        -1.762628
 H        -0.725886         0.639845         0.219459
 H         0.138054         1.386205        -1.323066
 H        -0.317468        -0.422102        -1.021309
 H         2.871474         2.051539        -0.321797
 H         2.250509         2.058741         1.465804
 H         4.665091         0.563696         1.123973
 H         3.167686        -1.952112         1.428606
