19
Iteration:  1588charge 0 multiplicity 1
 C         4.571585        -0.968279        -1.399110
 C         3.409682        -0.473227        -0.551869
 O         2.301715         0.060737        -1.254126
 C         1.496127         0.314607        -0.131961
 C         0.184052         0.734699        -0.599961
 C         2.486656         1.334443         0.635957
 C         3.610165         0.248226         0.734315
 C         2.965058        -1.201753         0.633842
 O         1.590849        -0.945463         0.769419
 H         5.469169        -0.682181        -0.913857
 H         4.579718        -2.128590        -1.585502
 H         4.509275        -0.474344        -2.381878
 H        -0.451110         1.210769         0.155346
 H         0.384979         1.522498        -1.317732
 H        -0.330944        -0.005879        -1.250891
 H         2.613011         2.107959        -0.170134
 H         1.938996         1.698431         1.526206
 H         4.563388         0.258348         1.191870
 H         3.439665        -1.969255         1.322471
