19
Iteration:  2859
 C         4.558279        -0.977841        -1.468680
 C         3.470698        -0.567745        -0.558204
 O         2.283569        -0.286192        -1.307986
 C         1.513342         0.252344        -0.159904
 C         0.010478         0.470797        -0.447474
 C         2.402180         1.393101         0.464970
 C         3.604122         0.527369         0.566595
 C         3.104615        -0.878273         0.867823
 O         1.692289        -0.779173         0.861616
 H         5.141581        -0.137705        -1.803578
 H         5.241622        -1.828939        -1.343208
 H         4.125888        -1.180668        -2.501632
 H        -0.707758         0.729647         0.303592
 H        -0.010205         1.374642        -1.060844
 H        -0.239907        -0.457447        -0.828495
 H         2.452312         2.246555        -0.158538
 H         1.937654         1.729388         1.376428
 H         4.676125         0.743642         0.960745
 H         3.486996        -1.567028         1.691227
