19
Iteration:  4244charge 0 multiplicity 1
 C         4.555775        -1.030690        -1.527292
 C         3.456371        -0.550485        -0.536135
 O         2.164407        -0.547571        -1.142319
 C         1.455527         0.127290        -0.173224
 C         0.002154         0.177093        -0.361175
 C         2.298784         1.425569         0.141484
 C         3.609330         0.722382         0.257422
 C         3.207374        -0.561037         0.928099
 O         1.874752        -0.567240         1.112027
 H         5.402584        -0.617270        -0.958561
 H         4.327581        -2.108136        -1.530348
 H         4.622815        -0.633760        -2.602991
 H        -0.554708         0.573279         0.460541
 H        -0.270503         0.759747        -1.236947
 H        -0.308606        -0.791368        -0.588131
 H         2.259257         2.312882        -0.502164
 H         2.091374         1.574088         1.129514
 H         4.593336         1.198844         0.420703
 H         3.870610        -0.908200         1.825911
