19
Iteration:   640
 C         4.652949        -1.104387        -1.429009
 C         3.471272        -0.478476        -0.631452
 O         2.171355        -0.405148        -1.204736
 C         1.455388         0.117532        -0.044509
 C        -0.054572         0.276111        -0.430156
 C         2.227282         1.438195         0.269001
 C         3.573616         0.783624         0.324367
 C         3.220647        -0.675813         0.847397
 O         1.871980        -0.758704         1.062380
 H         4.349468        -1.556747        -2.361718
 H         5.408216        -0.345150        -1.607337
 H         4.972067        -1.891794        -0.845122
 H        -0.471978         0.733701         0.472617
 H         0.130324         1.025793        -1.278978
 H        -0.589059        -0.595762        -0.779928
 H         2.220458         2.102117        -0.642428
 H         1.946291         2.015886         1.110354
 H         4.522138         1.277079         0.496983
 H         3.941059        -1.182634         1.529213
