19
Iteration:  2919
 C         4.672909        -1.134985        -1.373777
 C         3.461085        -0.504048        -0.644735
 O         2.210944        -0.177973        -1.269737
 C         1.473024         0.298329        -0.214315
 C        -0.021924         0.484233        -0.389563
 C         2.336916         1.405309         0.514256
 C         3.628268         0.566457         0.468464
 C         3.148939        -0.849195         0.790453
 O         1.728927        -0.846993         0.842983
 H         5.562301        -0.595868        -0.933500
 H         4.795435        -2.217195        -1.142648
 H         4.596018        -0.940253        -2.444172
 H        -0.398251         0.666511         0.650325
 H        -0.410687         1.028682        -1.234467
 H        -0.496049        -0.467150        -0.814588
 H         2.405892         2.371805        -0.047565
 H         1.993601         1.454426         1.561377
 H         4.620672         0.835156         0.697998
 H         3.583562        -1.677578         1.394085
