19
Iteration:  3079
 C         4.487369        -1.109572        -1.450213
 C         3.540832        -0.449836        -0.597102
 O         2.341605        -0.261964        -1.288137
 C         1.476087         0.193141        -0.204504
 C        -0.071275         0.291006        -0.362147
 C         2.336462         1.428043         0.393513
 C         3.605594         0.623361         0.455583
 C         3.152428        -0.773976         0.878050
 O         1.746783        -0.734464         0.900639
 H         3.741583        -1.722196        -1.994545
 H         5.289168        -0.502401        -2.063092
 H         5.251317        -1.647731        -0.846507
 H        -0.395601         0.663534         0.614905
 H        -0.187174         1.091467        -1.052709
 H        -0.510866        -0.630429        -0.786928
 H         2.350514         2.298234        -0.247893
 H         2.172826         1.681391         1.460811
 H         4.587316         1.048566         0.778773
 H         3.642171        -1.513064         1.648988
