19
Iteration:  2907
 C         4.618690        -1.077770        -1.339079
 C         3.460654        -0.492992        -0.643922
 O         2.283733        -0.212477        -1.374541
 C         1.479339         0.238399        -0.076956
 C        -0.012305         0.495549        -0.393022
 C         2.357372         1.371439         0.460528
 C         3.578117         0.559928         0.508047
 C         3.123568        -0.859741         0.776564
 O         1.725744        -0.850996         0.829888
 H         5.602240        -0.545478        -1.219338
 H         4.744560        -2.162704        -1.039061
 H         4.528185        -1.091187        -2.396332
 H        -0.541501         0.835516         0.568947
 H        -0.087741         1.482298        -0.871274
 H        -0.441051        -0.544609        -0.557919
 H         2.390493         2.256727        -0.165190
 H         1.961640         1.740352         1.395903
 H         4.393054         1.051986         0.871448
 H         3.715234        -1.580321         1.286456
