19
Iteration:  1146charge 0 multiplicity 1
 C         4.566606        -0.923665        -1.544190
 C         3.504012        -0.470747        -0.563086
 O         2.351431        -0.202491        -1.285786
 C         1.494169         0.311622        -0.123430
 C         0.126090         0.454478        -0.500147
 C         2.472958         1.368963         0.587568
 C         3.612625         0.363782         0.653944
 C         2.974758        -0.946905         0.839731
 O         1.534075        -0.792288         0.758794
 H         5.187778        -1.863532        -1.217943
 H         3.983743        -1.088623        -2.428855
 H         5.340722        -0.087381        -1.591727
 H        -0.447194         0.611276         0.394904
 H         0.017155         1.420670        -1.059907
 H        -0.200330        -0.317016        -1.121678
 H         2.502158         2.214015         0.002152
 H         2.157475         1.640870         1.531360
 H         4.628618         0.513567         0.936114
 H         3.325680        -1.770772         1.455004
