19
Iteration:  1282charge 0 multiplicity 1
 C         4.578294        -0.948110        -1.471798
 C         3.449392        -0.562848        -0.575749
 O         2.257436         0.010792        -1.235466
 C         1.496122         0.256355        -0.106013
 C         0.039081         0.508430        -0.601355
 C         2.598196         1.377337         0.572993
 C         3.667969         0.303725         0.816013
 C         2.969175        -1.029656         0.709676
 O         1.566637        -0.798311         0.772823
 H         4.346667        -0.350042        -2.359425
 H         5.642239        -0.535102        -1.197634
 H         4.760909        -2.003054        -1.724184
 H        -0.651918         0.713404         0.240163
 H         0.016859         1.425447        -1.280478
 H        -0.133218        -0.363592        -1.304217
 H         2.986283         2.087174        -0.137528
 H         2.094495         1.856557         1.416288
 H         4.632612         0.180553         1.227852
 H         3.215848        -2.021783         1.076084
