19
Iteration:  2457
 C         4.644407        -1.123631        -1.428133
 C         3.522187        -0.484895        -0.680329
 O         2.253753        -0.107165        -1.287430
 C         1.484197         0.237062        -0.116247
 C        -0.014801         0.554737        -0.463233
 C         2.319471         1.310242         0.587327
 C         3.649532         0.513941         0.521827
 C         3.103964        -0.842907         0.834826
 O         1.684686        -0.878790         0.787839
 H         4.357398        -1.595134        -2.401774
 H         5.503150        -0.329679        -1.275150
 H         4.894350        -2.060028        -0.853341
 H        -0.492553         0.964793         0.439069
 H        -0.009718         1.298932        -1.291692
 H        -0.527473        -0.320027        -0.897783
 H         2.385686         2.337034         0.028037
 H         1.888414         1.568471         1.620138
 H         4.687974         0.819697         0.773819
 H         3.471948        -1.634680         1.447474
