19
Iteration:  3647charge 0 multiplicity 1
 C         4.457352        -1.138871        -1.477059
 C         3.526771        -0.494141        -0.543946
 O         2.205608        -0.407035        -1.189511
 C         1.473423         0.103260        -0.078876
 C         0.033707         0.306976        -0.414000
 C         2.246688         1.453932         0.141237
 C         3.590438         0.783209         0.405544
 C         3.260114        -0.606100         0.925901
 O         1.814161        -0.756741         1.033389
 H         5.106830        -1.873847        -1.038267
 H         4.035262        -1.527109        -2.452620
 H         5.274038        -0.505832        -1.798622
 H        -0.557246         0.548298         0.539481
 H        -0.005204         0.989841        -1.284398
 H        -0.324802        -0.733910        -0.662869
 H         2.369491         2.084691        -0.798021
 H         1.907845         2.009073         0.977954
 H         4.569255         1.244531         0.634535
 H         3.928168        -1.267894         1.561512
