19
Iteration:   858charge 0 multiplicity 1
 C         4.532430        -1.064378        -1.480567
 C         3.508000        -0.466080        -0.607469
 O         2.295040        -0.359666        -1.278618
 C         1.470250         0.173776        -0.158594
 C         0.019835         0.422012        -0.461182
 C         2.267893         1.372755         0.429084
 C         3.663179         0.636567         0.478891
 C         3.194781        -0.787284         0.835831
 O         1.697841        -0.738547         0.974577
 H         3.911387        -1.614380        -2.240369
 H         5.224216        -0.189933        -1.887105
 H         5.076316        -1.825933        -0.915015
 H        -0.400458         0.813976         0.467296
 H        -0.120465         1.147398        -1.275465
 H        -0.278249        -0.594645        -0.692684
 H         2.233988         2.306415        -0.149088
 H         1.879554         1.622389         1.356756
 H         4.627271         1.077780         0.864966
 H         3.768081        -1.375317         1.577511
