19
Iteration:  2169charge 0 multiplicity 1
 C         4.703298        -1.079380        -1.452914
 C         3.567726        -0.539733        -0.618729
 O         2.305998        -0.047981        -1.315836
 C         1.515241         0.368900        -0.124344
 C         0.004045         0.555625        -0.465162
 C         2.392750         1.351442         0.621200
 C         3.646390         0.355686         0.649719
 C         2.891054        -1.007020         0.744693
 O         1.602536        -0.756318         0.767264
 H         4.678581        -0.594944        -2.520106
 H         5.721190        -0.860202        -1.154377
 H         4.605612        -2.207639        -1.635938
 H        -0.449078         0.616394         0.484339
 H        -0.116412         1.276996        -1.153255
 H        -0.297882        -0.363093        -0.873398
 H         2.621911         2.277698         0.177128
 H         1.919239         1.301645         1.591999
 H         4.610138         0.604095         1.079469
 H         3.202960        -1.990062         1.197578
