19
Iteration:  1473charge 0 multiplicity 1
 C         4.672149        -1.074653        -1.417900
 C         3.510774        -0.481743        -0.610534
 O         2.313575         0.003804        -1.368592
 C         1.550243         0.341672        -0.221864
 C         0.150364         0.711823        -0.483864
 C         2.410083         1.233717         0.704074
 C         3.590444         0.298085         0.670295
 C         2.892109        -1.081235         0.747325
 O         1.553463        -0.821250         0.731200
 H         5.452458        -1.356753        -0.650827
 H         4.354679        -1.886746        -1.961595
 H         5.052019        -0.329264        -2.122282
 H        -0.193909         0.855506         0.553359
 H        -0.013123         1.635523        -0.981944
 H        -0.436193        -0.078111        -1.064727
 H         2.424274         2.319376         0.206315
 H         2.117819         1.212652         1.813163
 H         4.540539         0.576881         1.053566
 H         3.193123        -1.990109         1.364242
