19
Iteration:  3453charge 0 multiplicity 1
 C         4.622908        -1.096174        -1.405569
 C         3.539294        -0.516267        -0.628039
 O         2.217284        -0.521328        -1.270925
 C         1.454274         0.147691        -0.097019
 C        -0.030401         0.368630        -0.257893
 C         2.223082         1.416590         0.228859
 C         3.619853         0.734646         0.343719
 C         3.207022        -0.681335         0.925515
 O         1.783174        -0.670806         0.947487
 H         5.442634        -1.473221        -0.824358
 H         4.272182        -1.785967        -2.197221
 H         5.167080        -0.486988        -2.124855
 H        -0.241263         0.860883         0.696832
 H        -0.269711         1.138690        -1.002815
 H        -0.539278        -0.530251        -0.458224
 H         2.274586         2.079828        -0.701916
 H         1.759318         1.889792         1.084846
 H         4.500603         1.359670         0.425695
 H         3.677542        -1.223548         1.639948
