19
Iteration:  3961
 C         4.510886        -1.084328        -1.444797
 C         3.487617        -0.441464        -0.618880
 O         2.156481        -0.359327        -1.170732
 C         1.465476         0.196006        -0.036013
 C         0.028028         0.171862        -0.470970
 C         2.302876         1.442830         0.237016
 C         3.682853         0.689453         0.347671
 C         3.206440        -0.650918         0.891525
 O         1.805572        -0.702528         1.014368
 H         4.785190        -2.050701        -0.938196
 H         4.172248        -1.467120        -2.407666
 H         5.386277        -0.460983        -1.694405
 H        -0.697658         0.482120         0.408824
 H         0.097207         0.888006        -1.313184
 H        -0.293874        -0.869460        -0.741439
 H         2.184700         2.194177        -0.662828
 H         2.032733         1.976658         1.162544
 H         4.696139         1.002685         0.826894
 H         3.716680        -1.334613         1.676497
