19
Iteration:  4723charge 0 multiplicity 1
 C         4.615658        -1.058433        -1.378986
 C         3.468475        -0.473016        -0.697938
 O         2.162317        -0.580797        -1.220274
 C         1.464896         0.228452        -0.076289
 C        -0.047249         0.169128        -0.268829
 C         2.276449         1.475762         0.098250
 C         3.562066         0.710880         0.251582
 C         3.278514        -0.576898         0.919965
 O         1.804951        -0.636117         1.093767
 H         5.584151        -0.948202        -0.878954
 H         4.637487        -2.116475        -1.448407
 H         4.752677        -0.619691        -2.399512
 H        -0.489047         0.648910         0.617865
 H        -0.266545         0.697565        -1.196906
 H        -0.237129        -0.956844        -0.290842
 H         2.279557         2.141524        -0.676925
 H         1.973374         2.019704         0.920486
 H         4.588044         1.170396         0.277310
 H         3.953184        -1.031199         1.607694
