19
Iteration:   981
 C         4.596941        -1.012533        -1.516963
 C         3.534441        -0.467637        -0.620656
 O         2.230252        -0.330494        -1.200657
 C         1.506278         0.219184        -0.143802
 C         0.080772         0.645263        -0.537738
 C         2.292897         1.379526         0.406542
 C         3.522286         0.594696         0.583564
 C         3.125479        -0.901130         0.846824
 O         1.735106        -0.952796         0.946479
 H         5.379948        -0.217224        -1.500392
 H         4.927424        -2.055102        -1.055904
 H         4.108752        -1.055763        -2.568442
 H        -0.513181         1.007298         0.332223
 H         0.170243         1.531200        -1.205859
 H        -0.306314        -0.279611        -1.061496
 H         2.538366         2.176584        -0.244350
 H         1.989695         1.801252         1.323934
 H         4.423042         1.080586         1.057778
 H         3.608038        -1.709412         1.454937
