19
Iteration:  2285
 C         4.574417        -0.995576        -1.542099
 C         3.575280        -0.478630        -0.531318
 O         2.304294        -0.005193        -1.239804
 C         1.488880         0.301239        -0.067245
 C         0.076898         0.503039        -0.551493
 C         2.463799         1.391058         0.485670
 C         3.667179         0.412405         0.704174
 C         2.994997        -1.027592         0.808847
 O         1.553750        -0.902045         0.788641
 H         5.535818        -1.276249        -1.213310
 H         4.156254        -2.089409        -1.691076
 H         4.372127        -0.393632        -2.379497
 H        -0.591906         0.701087         0.360709
 H         0.048989         1.266018        -1.454077
 H        -0.277938        -0.446980        -0.986226
 H         2.671718         2.036736        -0.451238
 H         2.011737         1.882631         1.401278
 H         4.594793         0.673579         1.186797
 H         3.334912        -1.855550         1.444984
