19
Iteration:  4264
 C         4.590598        -1.160581        -1.428362
 C         3.468611        -0.480892        -0.568811
 O         2.209878        -0.511490        -1.198758
 C         1.441718         0.185103        -0.089112
 C        -0.028340         0.085866        -0.315934
 C         2.239518         1.497755         0.178562
 C         3.655509         0.796850         0.242029
 C         3.252612        -0.571417         0.867554
 O         1.797798        -0.580236         1.061300
 H         5.573278        -1.256143        -0.909420
 H         4.045476        -2.008344        -1.981138
 H         4.846385        -0.420930        -2.215817
 H        -0.446095         0.482952         0.600514
 H        -0.357248         0.715046        -1.143561
 H        -0.286405        -0.935846        -0.318970
 H         2.269601         2.019221        -0.772142
 H         2.038781         2.050187         1.155904
 H         4.664908         1.197349         0.290808
 H         3.768766        -1.357020         1.544629
