19
Iteration:  2391charge 0 multiplicity 1
 C         4.568300        -0.973630        -1.556464
 C         3.615576        -0.534186        -0.495705
 O         2.358733        -0.210838        -1.237741
 C         1.514384         0.283242        -0.187423
 C         0.005193         0.509820        -0.482084
 C         2.454325         1.370996         0.514662
 C         3.644627         0.420173         0.610960
 C         2.938088        -0.966175         0.822788
 O         1.573773        -0.769942         0.768838
 H         4.590926        -2.059363        -1.921556
 H         4.265768        -0.279551        -2.467863
 H         5.633943        -0.675514        -1.243435
 H        -0.450451         0.715988         0.513178
 H        -0.152488         1.409449        -1.007842
 H        -0.320375        -0.462796        -0.821244
 H         2.354914         2.368724        -0.027496
 H         2.121170         1.615776         1.576106
 H         4.538619         0.514015         1.193034
 H         3.295528        -1.532363         1.657979
