19
Iteration:  5000
 C         4.742931        -1.016105        -1.426716
 C         3.539724        -0.528507        -0.581465
 O         2.165120        -0.648130        -1.152601
 C         1.417397         0.159627        -0.204284
 C        -0.082435         0.251296        -0.244064
 C         2.201876         1.407746         0.011868
 C         3.578894         0.745834         0.224140
 C         3.268092        -0.565288         0.967177
 O         1.822154        -0.599096         1.113360
 H         5.684812        -0.420708        -1.229916
 H         4.914404        -2.166104        -1.218848
 H         4.282563        -0.769921        -2.477357
 H        -0.430349         0.762031         0.731376
 H        -0.487167         0.903264        -1.125955
 H        -0.775627        -0.680503        -0.345957
 H         2.177710         2.119784        -0.833808
 H         2.057901         1.873111         0.949514
 H         4.567402         1.336616         0.230663
 H         3.898502        -1.217246         1.671607
