19
Iteration:  4613
 C         4.544401        -1.281374        -1.332731
 C         3.493525        -0.419690        -0.646585
 O         2.204378        -0.431812        -1.215818
 C         1.445904         0.180238        -0.071583
 C        -0.021036         0.051389        -0.273571
 C         2.270147         1.474599         0.163523
 C         3.612286         0.865238         0.260028
 C         3.264563        -0.467443         0.802019
 O         1.871230        -0.644017         1.025281
 H         4.767415        -2.131707        -0.649258
 H         3.921047        -1.442307        -2.212597
 H         5.412723        -0.697872        -1.590487
 H        -0.834524         0.347138         0.425845
 H        -0.388066         0.407942        -1.259826
 H        -0.143790        -1.074649        -0.245422
 H         2.091443         2.208680        -0.578155
 H         1.942049         1.881504         1.094733
 H         4.507490         1.369987         0.550097
 H         3.887731        -1.233629         1.377585
