19
Iteration:  3751charge 0 multiplicity 1
 C         4.652275        -1.042201        -1.386487
 C         3.501496        -0.455270        -0.617598
 O         2.170361        -0.436850        -1.203079
 C         1.441510         0.158194        -0.071034
 C         0.020653         0.356364        -0.332509
 C         2.239329         1.408439         0.104994
 C         3.587436         0.680962         0.329272
 C         3.227446        -0.726919         0.894073
 O         1.809855        -0.752227         1.019754
 H         5.028156        -1.947319        -0.854074
 H         4.308024        -1.596852        -2.183474
 H         5.256773        -0.196333        -1.760434
 H        -0.404208         0.854006         0.554126
 H        -0.152485         1.151219        -1.120251
 H        -0.627715        -0.542315        -0.493661
 H         2.123547         2.093787        -0.737714
 H         1.867751         2.016228         1.066536
 H         4.601452         1.247522         0.559879
 H         3.957199        -1.368557         1.533442
