19
Iteration:  4652
 C         4.562267        -1.134835        -1.421747
 C         3.518691        -0.461518        -0.586269
 O         2.182221        -0.523008        -1.139925
 C         1.462655         0.158285        -0.088097
 C        -0.055571         0.140138        -0.385139
 C         2.218923         1.423810         0.085933
 C         3.627327         0.795356         0.247844
 C         3.289914        -0.514548         0.867068
 O         1.854314        -0.633540         1.176830
 H         5.043913        -2.097952        -1.236183
 H         3.953613        -1.613802        -2.293044
 H         5.238978        -0.395348        -1.881896
 H        -0.638633         0.501162         0.456588
 H        -0.189528         0.730011        -1.306500
 H        -0.267402        -0.884179        -0.603552
 H         2.171794         2.214857        -0.779288
 H         1.836552         2.045028         1.005629
 H         4.523018         1.436219         0.463752
 H         3.939650        -1.064077         1.639621
