19
Iteration:  1048
 C         4.604771        -1.095155        -1.420472
 C         3.505242        -0.372026        -0.607751
 O         2.292888        -0.063405        -1.257513
 C         1.474121         0.273809        -0.065300
 C        -0.027921         0.330102        -0.416912
 C         2.497423         1.399454         0.409331
 C         3.612532         0.415549         0.689664
 C         3.023737        -0.940390         0.725221
 O         1.650999        -0.767128         0.754106
 H         4.447577        -0.875410        -2.539653
 H         5.556250        -0.677262        -1.077647
 H         4.780729        -2.226120        -1.196366
 H        -0.597313         0.790306         0.396800
 H        -0.328553         1.089650        -1.227629
 H        -0.345294        -0.670738        -0.664604
 H         2.798724         1.985707        -0.377865
 H         2.082604         2.028825         1.170669
 H         4.461496         0.812466         1.328867
 H         3.443495        -1.849510         1.148709
