19
Iteration:  1512charge 0 multiplicity 1
 C         4.624654        -1.053567        -1.401786
 C         3.505653        -0.430824        -0.564098
 O         2.274141         0.103466        -1.289294
 C         1.494909         0.348827        -0.135840
 C         0.114284         0.637395        -0.490465
 C         2.564771         1.390381         0.633510
 C         3.621141         0.255217         0.770914
 C         2.887177        -1.116562         0.653792
 O         1.540645        -0.952276         0.633376
 H         5.604318        -0.949637        -0.928629
 H         4.479375        -2.188398        -1.111541
 H         4.671947        -0.825858        -2.512186
 H        -0.501482         0.626401         0.438177
 H        -0.062433         1.616182        -0.996551
 H        -0.253541        -0.132544        -1.190063
 H         2.903752         1.963831        -0.170616
 H         2.380598         2.008904         1.499630
 H         4.533869         0.340915         1.356338
 H         3.130679        -1.994415         1.183421
