19
Iteration:  2983
 C         4.496308        -0.987779        -1.554507
 C         3.581670        -0.490407        -0.536118
 O         2.310103        -0.329024        -1.231526
 C         1.467046         0.178305        -0.052663
 C         0.055224         0.457820        -0.481881
 C         2.361440         1.392193         0.402710
 C         3.629610         0.587930         0.536404
 C         3.096350        -0.797238         0.881593
 O         1.657632        -0.805226         0.884278
 H         5.093315        -1.843418        -1.181464
 H         3.979410        -1.371634        -2.478992
 H         5.089755        -0.264844        -2.050054
 H        -0.566267         0.916381         0.342258
 H         0.033454         1.154409        -1.325066
 H        -0.332897        -0.594250        -0.754212
 H         2.461501         2.091974        -0.394931
 H         2.102762         1.853335         1.297561
 H         4.522637         1.012274         0.975831
 H         3.564389        -1.651412         1.460579
