19
Iteration:   448
 C         4.527112        -1.140168        -1.411191
 C         3.481541        -0.427107        -0.630675
 O         2.182804        -0.521995        -1.138633
 C         1.488221         0.143492        -0.111097
 C         0.012201         0.111946        -0.358004
 C         2.154914         1.448655         0.152341
 C         3.574902         0.747775         0.261197
 C         3.303805        -0.529218         0.888444
 O         1.888242        -0.574808         1.071150
 H         4.304908        -2.224234        -1.514002
 H         4.521125        -0.831910        -2.507740
 H         5.620268        -1.070190        -1.073360
 H        -0.552778         0.480931         0.461453
 H        -0.070708         0.527647        -1.381039
 H        -0.256217        -0.923701        -0.465413
 H         2.073410         2.368247        -0.458978
 H         1.915356         1.809363         1.088310
 H         4.474802         1.404092         0.453725
 H         4.005254        -1.005230         1.668096
