19
Iteration:  3968
 C         4.512167        -1.128360        -1.406202
 C         3.470187        -0.408776        -0.666664
 O         2.164096        -0.305057        -1.166310
 C         1.450816         0.157649         0.000948
 C         0.028310         0.174280        -0.443268
 C         2.302517         1.440032         0.203718
 C         3.695820         0.716070         0.358915
 C         3.163352        -0.655154         0.864272
 O         1.836072        -0.759139         1.046317
 H         4.804438        -2.095362        -0.988696
 H         4.215413        -1.386113        -2.395663
 H         5.462971        -0.609123        -1.591475
 H        -0.647463         0.747801         0.216916
 H        -0.006294         0.848297        -1.307578
 H        -0.191075        -0.774726        -0.963155
 H         2.218472         2.014369        -0.681382
 H         1.986462         2.040092         1.100646
 H         4.574272         1.213118         0.719057
 H         3.784376        -1.270337         1.557559
