19
Iteration:  1004
 C         4.632503        -1.022509        -1.509708
 C         3.514666        -0.517678        -0.610685
 O         2.259552        -0.286827        -1.220739
 C         1.480773         0.151741        -0.135687
 C         0.051843         0.563758        -0.542290
 C         2.263918         1.284737         0.547352
 C         3.646923         0.555466         0.546914
 C         3.122918        -0.793704         0.829059
 O         1.662653        -0.769023         0.864133
 H         5.123764        -0.177290        -2.061074
 H         5.307962        -1.675143        -0.878123
 H         4.081806        -1.721883        -2.235776
 H        -0.476951         1.053666         0.298566
 H         0.208682         1.444498        -1.255228
 H        -0.517174        -0.243659        -1.045767
 H         2.278266         2.239270         0.135932
 H         2.063862         1.371655         1.588918
 H         4.745214         0.752797         0.813702
 H         3.546775        -1.567412         1.519959
