19
Iteration:  2583
 C         4.571704        -1.041416        -1.504610
 C         3.554987        -0.439408        -0.577416
 O         2.297499        -0.127186        -1.206411
 C         1.463715         0.185410        -0.070557
 C         0.046040         0.460417        -0.473881
 C         2.327458         1.370363         0.390020
 C         3.564664         0.526444         0.550231
 C         3.105836        -0.960402         0.827514
 O         1.674124        -0.833216         0.852955
 H         5.216657        -0.184268        -1.796287
 H         5.245474        -1.829407        -1.035449
 H         3.891844        -1.525514        -2.273180
 H        -0.469135         0.935609         0.371140
 H         0.278079         1.212814        -1.202208
 H        -0.378533        -0.490045        -0.892760
 H         2.660347         2.047711        -0.391148
 H         2.036919         1.947528         1.258253
 H         4.483604         0.927816         1.063620
 H         3.555555        -1.646114         1.534355
