19
Iteration:  3949
 C         4.536119        -1.085302        -1.520102
 C         3.491486        -0.529520        -0.545930
 O         2.216203        -0.446222        -1.187162
 C         1.482922         0.203662        -0.135907
 C         0.014306         0.195279        -0.445601
 C         2.346083         1.489492         0.305606
 C         3.581388         0.693399         0.381928
 C         3.238552        -0.686540         0.906381
 O         1.742722        -0.616379         1.003712
 H         5.186301        -1.887213        -1.056321
 H         3.975127        -1.367511        -2.330902
 H         5.242321        -0.272236        -1.785932
 H        -0.624654         0.530454         0.494678
 H        -0.420718         0.768742        -1.285895
 H        -0.172472        -0.884841        -0.743032
 H         2.417112         2.339837        -0.471523
 H         1.997969         1.838291         1.314393
 H         4.617262         1.168092         0.462881
 H         3.831439        -1.348946         1.662178
