19
Iteration:  1008
 C         4.585487        -1.039166        -1.476589
 C         3.507591        -0.525916        -0.640959
 O         2.283459        -0.255112        -1.216778
 C         1.476216         0.191067        -0.137603
 C         0.056263         0.552984        -0.534519
 C         2.299507         1.274554         0.538007
 C         3.638559         0.545218         0.508911
 C         3.116435        -0.812471         0.852220
 O         1.668362        -0.778886         0.851423
 H         5.040690        -0.208146        -2.001998
 H         5.377864        -1.363721        -0.858961
 H         4.135211        -1.694623        -2.162052
 H        -0.505624         0.892934         0.352347
 H         0.231335         1.328164        -1.335916
 H        -0.450773        -0.306271        -0.947823
 H         2.353546         2.327271         0.089354
 H         2.047250         1.315715         1.696943
 H         4.612948         0.822540         0.853943
 H         3.448668        -1.560727         1.518709
