19
Iteration:  1406
 C         4.582702        -0.981894        -1.508778
 C         3.480943        -0.541565        -0.584709
 O         2.328028        -0.044690        -1.282193
 C         1.538910         0.354986        -0.107048
 C         0.134504         0.610290        -0.620745
 C         2.494066         1.269598         0.715386
 C         3.609426         0.309307         0.757007
 C         2.904302        -1.122903         0.691332
 O         1.559045        -0.756554         0.772739
 H         4.988970        -2.002010        -1.543602
 H         4.312097        -0.582577        -2.476280
 H         5.477201        -0.387139        -1.327020
 H        -0.464061         0.990208         0.240202
 H         0.147786         1.300353        -1.493232
 H        -0.231185        -0.389127        -0.976673
 H         2.628474         2.347317         0.210856
 H         1.912205         1.541243         1.673908
 H         4.533066         0.498883         1.324150
 H         3.242224        -2.021373         1.083414
