19
Iteration:  3460
 C         4.649261        -1.112174        -1.426673
 C         3.500142        -0.519482        -0.627331
 O         2.241843        -0.508341        -1.271689
 C         1.454353         0.172727        -0.186126
 C        -0.016945         0.367436        -0.259956
 C         2.299132         1.415686         0.255042
 C         3.565231         0.729126         0.318603
 C         3.194601        -0.684604         0.930882
 O         1.782298        -0.644455         0.987861
 H         5.425094        -1.296369        -0.659543
 H         4.276312        -1.905169        -2.096403
 H         5.035380        -0.408822        -2.191607
 H        -0.369739         0.638973         0.783267
 H        -0.431002         0.991303        -1.058479
 H        -0.642779        -0.604154        -0.341885
 H         2.206981         2.181441        -0.567704
 H         1.785988         1.745124         1.200025
 H         4.500458         1.236166         0.430805
 H         3.764965        -1.313649         1.663470
