19
Iteration:  2030
 C         4.617303        -1.054862        -1.415480
 C         3.483740        -0.501484        -0.579800
 O         2.325928        -0.050263        -1.282315
 C         1.507590         0.320608        -0.140077
 C         0.087855         0.712152        -0.474086
 C         2.458974         1.326653         0.649587
 C         3.648841         0.386628         0.622390
 C         2.955373        -1.009923         0.763519
 O         1.566922        -0.955463         0.674937
 H         4.519234        -2.147791        -1.617950
 H         4.725909        -0.586905        -2.326125
 H         5.566150        -0.838434        -0.899462
 H        -0.538837         1.013001         0.421578
 H         0.065878         1.494226        -1.220386
 H        -0.529294        -0.173757        -0.888654
 H         2.529657         2.095592        -0.136645
 H         1.852876         1.551813         1.566576
 H         4.569472         0.642146         1.122275
 H         3.517395        -1.868082         1.252599
