19
Iteration:  2574charge 0 multiplicity 1
 C         4.556239        -1.017708        -1.539473
 C         3.505004        -0.498626        -0.567255
 O         2.288619        -0.162808        -1.173915
 C         1.478055         0.183487        -0.120739
 C         0.123970         0.524030        -0.545429
 C         2.333638         1.400204         0.430628
 C         3.600057         0.520039         0.565615
 C         3.105920        -0.879960         0.846169
 O         1.670138        -0.922278         0.910818
 H         5.106373        -0.213973        -2.086459
 H         5.182921        -1.639790        -0.946375
 H         4.106221        -1.546043        -2.432104
 H        -0.532771         0.866205         0.325066
 H        -0.005727         1.354980        -1.310656
 H        -0.440644        -0.419912        -0.947707
 H         2.349959         2.137317        -0.303546
 H         2.002195         1.908878         1.303423
 H         4.568628         0.980677         0.910862
 H         3.571862        -1.602813         1.544923
