19
Iteration:  2636charge 0 multiplicity 1
 C         4.684317        -1.083250        -1.321738
 C         3.479798        -0.506808        -0.677939
 O         2.271252        -0.149543        -1.360407
 C         1.468060         0.251850        -0.039440
 C        -0.009258         0.484299        -0.357399
 C         2.297850         1.355273         0.503259
 C         3.672353         0.547860         0.482306
 C         3.080075        -0.875235         0.728547
 O         1.663508        -0.786701         0.807404
 H         5.430368        -0.340503        -1.603782
 H         5.202259        -1.902728        -0.719806
 H         4.374356        -1.675656        -2.234196
 H        -0.491532         0.783014         0.512007
 H        -0.108563         0.888171        -1.270902
 H        -0.263911        -0.527898        -0.635907
 H         2.335530         2.286494        -0.187647
 H         2.056186         1.495098         1.603278
 H         4.683348         0.863786         0.892655
 H         3.425679        -1.721988         1.347400
