19
Iteration:   189
 C         4.526134        -1.149563        -1.404750
 C         3.519103        -0.402526        -0.613577
 O         2.128886        -0.580150        -1.011423
 C         1.458997         0.049547        -0.001737
 C         0.004418         0.082799        -0.380693
 C         2.107489         1.428716        -0.088384
 C         3.508016         0.941536         0.128335
 C         3.375341        -0.432756         0.902693
 O         2.034354        -0.645701         1.242761
 H         4.057947        -2.086064        -1.609399
 H         4.720427        -0.624835        -2.339512
 H         5.439995        -1.290820        -0.830773
 H        -0.723721         0.456966         0.314527
 H        -0.142996         0.610024        -1.348366
 H        -0.280725        -0.926434        -0.631150
 H         1.868888         1.820743        -1.115209
 H         1.554207         2.063182         0.592456
 H         4.422254         1.464666        -0.081579
 H         4.170465        -0.838917         1.545369
