19
Iteration:  2712
 C         4.595947        -0.974202        -1.538713
 C         3.518014        -0.493118        -0.593081
 O         2.239297        -0.222684        -1.247312
 C         1.531255         0.361649        -0.114842
 C         0.012511         0.465792        -0.547436
 C         2.400421         1.339436         0.492419
 C         3.657967         0.414945         0.619097
 C         3.062596        -0.930088         0.893621
 O         1.636493        -0.756415         0.887519
 H         4.266822        -0.760520        -2.569648
 H         5.603980        -0.647477        -1.197914
 H         4.697939        -2.012411        -1.818751
 H        -0.658989         0.408934         0.291884
 H        -0.178441         1.196516        -1.287152
 H        -0.056198        -0.445648        -1.153327
 H         2.509881         2.177537        -0.325460
 H         1.888285         1.719738         1.473995
 H         4.687133         0.778914         0.955735
 H         3.561996        -1.711774         1.536263
