19
Iteration:  1484
 C         4.664752        -1.063750        -1.330351
 C         3.478278        -0.553227        -0.595708
 O         2.309502         0.071898        -1.336081
 C         1.493478         0.361021        -0.117093
 C         0.055584         0.669167        -0.457320
 C         2.463771         1.274266         0.675981
 C         3.714587         0.296488         0.641381
 C         2.917533        -1.105124         0.674217
 O         1.528706        -0.820171         0.645244
 H         5.580367        -1.098686        -0.681836
 H         4.498577        -2.041816        -1.647586
 H         4.979783        -0.473927        -2.188154
 H        -0.635163         0.694538         0.396809
 H         0.058770         1.562712        -1.034751
 H        -0.266599        -0.230480        -1.073542
 H         2.779674         2.275832         0.134485
 H         2.024177         1.596623         1.673654
 H         4.696026         0.483658         1.026710
 H         3.092877        -2.087370         1.217616
