19
Iteration:  1301
 C         4.618381        -0.967113        -1.530125
 C         3.503002        -0.483086        -0.622927
 O         2.321910        -0.083296        -1.259638
 C         1.513429         0.402633        -0.140502
 C         0.127447         0.611353        -0.575644
 C         2.441471         1.298298         0.665402
 C         3.630012         0.286236         0.621261
 C         2.928418        -1.093589         0.770872
 O         1.531196        -0.823311         0.838476
 H         4.432269        -0.690958        -2.641071
 H         5.543934        -0.348481        -1.278553
 H         4.807826        -2.006585        -1.145763
 H        -0.503021         0.521096         0.314033
 H        -0.032752         1.487054        -1.123724
 H         0.029686        -0.291539        -1.265349
 H         2.674534         2.157805         0.135035
 H         2.173053         1.440683         1.660267
 H         4.552487         0.704505         1.065862
 H         3.201704        -1.875145         1.429852
