19
Iteration:  3403
 C         4.518470        -1.102985        -1.459756
 C         3.479041        -0.520441        -0.588740
 O         2.163093        -0.394436        -1.191827
 C         1.497933         0.169642        -0.071960
 C        -0.036826         0.161366        -0.388339
 C         2.360339         1.452428         0.244911
 C         3.617680         0.690371         0.366798
 C         3.207351        -0.664714         0.872279
 O         1.811662        -0.565386         1.016139
 H         5.198231        -1.951947        -1.167229
 H         4.056263        -1.571260        -2.348826
 H         5.321610        -0.355083        -1.831211
 H        -0.673362         0.610012         0.368755
 H        -0.165429         0.848291        -1.265507
 H        -0.070850        -0.906222        -0.689191
 H         2.288175         2.202001        -0.505106
 H         1.919466         1.790838         1.203457
 H         4.633367         1.069824         0.578814
 H         3.849409        -1.353572         1.449983
