19
Iteration:  3027charge 0 multiplicity 1
 C         4.656215        -1.005838        -1.340209
 C         3.418718        -0.472367        -0.644658
 O         2.199472        -0.293240        -1.270948
 C         1.452333         0.230663        -0.078708
 C        -0.039260         0.427902        -0.389975
 C         2.402937         1.357131         0.375953
 C         3.691381         0.580819         0.419089
 C         3.155259        -0.839942         0.797811
 O         1.701003        -0.804442         0.902173
 H         4.744252        -2.089008        -1.055903
 H         4.358271        -0.834591        -2.442026
 H         5.495928        -0.345461        -1.119189
 H        -0.643245         0.867153         0.450503
 H         0.007340         1.309220        -1.024893
 H        -0.429904        -0.567889        -0.789828
 H         2.384326         2.057163        -0.437781
 H         2.051766         1.818338         1.239175
 H         4.749922         0.930784         0.698122
 H         3.702019        -1.679120         1.385137
