19
Iteration:  4971charge 0 multiplicity 1
 C         4.538510        -1.126040        -1.388853
 C         3.506956        -0.419606        -0.606153
 O         2.189352        -0.524894        -1.157463
 C         1.454195         0.108589        -0.058029
 C         0.022109         0.149423        -0.297789
 C         2.211216         1.439540         0.009713
 C         3.539827         0.771674         0.280827
 C         3.285794        -0.464037         0.945225
 O         1.875088        -0.676651         1.034102
 H         5.508126        -0.682089        -1.293171
 H         4.418944        -2.195979        -1.211035
 H         4.328433        -0.934156        -2.374835
 H        -0.365233         0.817880         0.415478
 H        -0.033621         0.592159        -1.232908
 H        -0.487547        -0.785569        -0.392598
 H         2.209362         1.863856        -1.034193
 H         2.038886         2.083030         0.968079
 H         4.426327         1.252982         0.537320
 H         3.906995        -1.055778         1.656644
