19
Iteration:  1487
 C         4.668411        -1.069244        -1.320100
 C         3.456396        -0.550079        -0.597835
 O         2.319202         0.073885        -1.307228
 C         1.498293         0.369252        -0.084873
 C         0.033824         0.649392        -0.454432
 C         2.496698         1.290792         0.663436
 C         3.702842         0.294876         0.642242
 C         2.939048        -1.099507         0.649651
 O         1.514180        -0.827578         0.623028
 H         5.520714        -1.083786        -0.678322
 H         4.584914        -2.139266        -1.560343
 H         4.864471        -0.435492        -2.182635
 H        -0.693254         0.713356         0.335148
 H        -0.010450         1.560022        -1.079726
 H        -0.246773        -0.150023        -1.089063
 H         2.856629         2.234523         0.069888
 H         2.015607         1.590131         1.622310
 H         4.720483         0.457747         1.069375
 H         3.183039        -2.059232         1.128213
