19
Iteration:  1225charge 0 multiplicity 1
 C         4.669921        -1.102827        -1.428324
 C         3.517469        -0.437619        -0.667035
 O         2.336166        -0.157562        -1.346379
 C         1.444355         0.275507        -0.118654
 C         0.033913         0.783368        -0.506751
 C         2.298512         1.239623         0.728619
 C         3.512386         0.469920         0.630070
 C         3.130377        -0.980706         0.767553
 O         1.686389        -0.900977         0.726768
 H         5.562376        -0.389314        -1.513742
 H         4.976554        -2.028630        -0.879217
 H         4.145582        -1.344020        -2.403367
 H        -0.479604         1.163703         0.402096
 H         0.191216         1.509982        -1.268970
 H        -0.695063        -0.053552        -0.787129
 H         2.488897         2.133862         0.284055
 H         1.832956         1.275469         1.655670
 H         4.516072         0.830468         0.980358
 H         3.500709        -1.882100         1.243423
