19
Iteration:  3066charge 0 multiplicity 1
 C         4.551579        -1.160891        -1.434156
 C         3.521353        -0.459746        -0.574676
 O         2.304342        -0.237217        -1.303976
 C         1.472252         0.220229        -0.124324
 C        -0.032995         0.360060        -0.312579
 C         2.310656         1.364229         0.340650
 C         3.699816         0.651858         0.532220
 C         3.148520        -0.754133         0.813542
 O         1.715658        -0.748145         0.836824
 H         4.314977        -2.047919        -1.990654
 H         4.791034        -0.420229        -2.215871
 H         5.405352        -1.560381        -0.775531
 H        -0.510067         0.445021         0.656078
 H        -0.467391         1.022355        -1.052793
 H        -0.419806        -0.600584        -0.576579
 H         2.338768         2.212925        -0.392733
 H         1.693518         1.738686         1.268495
 H         4.600520         1.083557         0.821203
 H         3.567743        -1.513369         1.515310
