19
Iteration:  4174charge 0 multiplicity 1
 C         4.622495        -1.182353        -1.437962
 C         3.522923        -0.528472        -0.589020
 O         2.215807        -0.476909        -1.198051
 C         1.472297         0.235222        -0.142569
 C        -0.033957         0.135318        -0.250173
 C         2.266794         1.448541         0.203747
 C         3.643334         0.801597         0.278772
 C         3.168849        -0.573072         0.833267
 O         1.818616        -0.586874         0.990260
 H         5.145810        -0.367038        -1.869095
 H         5.101863        -1.937950        -0.792333
 H         4.249767        -1.827599        -2.185385
 H        -0.482354         0.607411         0.617745
 H        -0.512799         0.603171        -1.083425
 H        -0.379450        -0.903756        -0.417434
 H         2.065505         2.279681        -0.409481
 H         1.841283         1.635628         1.252495
 H         4.590344         1.282504         0.543319
 H         3.566410        -1.139605         1.590027
