19
Iteration:  3483
 C         4.626643        -1.109982        -1.384106
 C         3.479553        -0.527335        -0.611248
 O         2.127314        -0.357641        -1.220148
 C         1.447657         0.239534        -0.099446
 C         0.002634         0.200342        -0.347468
 C         2.364569         1.466139         0.214948
 C         3.694543         0.674071         0.310067
 C         3.166075        -0.719345         0.853421
 O         1.768414        -0.654180         1.009773
 H         5.518427        -0.857475        -0.817361
 H         4.450531        -2.174206        -1.618973
 H         4.645746        -0.619816        -2.318507
 H        -0.542502         0.524679         0.622024
 H        -0.300005         0.789874        -1.224608
 H        -0.437270        -0.837027        -0.459596
 H         2.340150         2.228905        -0.667155
 H         1.975828         1.902929         1.167552
 H         4.618301         1.094252         0.616406
 H         3.701425        -1.293733         1.509760
