19
Iteration:    94charge 0 multiplicity 1
 C         4.640477        -1.118956        -1.293988
 C         3.486739        -0.383215        -0.672803
 O         2.050517        -0.603067        -1.037458
 C         1.396239         0.079849         0.047015
 C        -0.153906         0.052576        -0.227132
 C         2.105177         1.400417        -0.108950
 C         3.559003         0.974537         0.026964
 C         3.440423        -0.409049         0.891500
 O         2.098737        -0.697930         1.146210
 H         5.018778        -0.508720        -2.205649
 H         5.495774        -1.141588        -0.515804
 H         4.278531        -2.150359        -1.635324
 H        -0.784571         0.646127         0.433205
 H        -0.178959         0.509725        -1.274770
 H        -0.446973        -0.993877        -0.329381
 H         1.965643         1.842148        -1.099282
 H         1.718934         2.265246         0.568889
 H         4.395218         1.546730        -0.302638
 H         4.148402        -1.108395         1.364480
