19
Iteration:  1650
 C         4.591546        -1.047172        -1.392590
 C         3.472338        -0.441060        -0.606176
 O         2.333011         0.009971        -1.272242
 C         1.534064         0.299770        -0.176115
 C         0.113915         0.767877        -0.487960
 C         2.366204         1.216667         0.614847
 C         3.644174         0.388914         0.736424
 C         2.994341        -1.096115         0.747985
 O         1.561653        -0.955171         0.664154
 H         5.034793        -1.881328        -0.828340
 H         4.289742        -1.456605        -2.319797
 H         5.423435        -0.337313        -1.516870
 H        -0.372480         0.962379         0.463980
 H         0.192077         1.653551        -1.151228
 H        -0.415985        -0.008464        -0.963918
 H         2.510174         2.029868        -0.221225
 H         1.973649         1.681831         1.532261
 H         4.607490         0.666632         1.120979
 H         3.520267        -2.006423         1.045779
