19
Iteration:  4316charge 0 multiplicity 1
 C         4.560413        -1.235554        -1.383576
 C         3.505273        -0.399610        -0.626370
 O         2.240179        -0.482539        -1.216904
 C         1.476444         0.142939        -0.112767
 C        -0.037487         0.104016        -0.210951
 C         2.207130         1.531156         0.162390
 C         3.541346         0.835534         0.227514
 C         3.301577        -0.596467         0.863690
 O         1.876476        -0.629659         0.986110
 H         4.845904        -2.001540        -0.623708
 H         3.956919        -1.634719        -2.261485
 H         5.389621        -0.700145        -1.699186
 H        -0.510047         0.755957         0.586538
 H        -0.256419         0.691205        -1.188488
 H        -0.556152        -0.930672        -0.424011
 H         2.118262         2.336310        -0.590279
 H         1.865534         1.659047         1.315548
 H         4.510328         1.292298         0.395664
 H         3.804534        -1.005797         1.816585
