19
Iteration:   793
 C         4.585490        -1.027961        -1.438107
 C         3.517552        -0.497556        -0.588584
 O         2.233782        -0.334445        -1.218577
 C         1.497864         0.163590        -0.181834
 C        -0.030501         0.339427        -0.377645
 C         2.301249         1.421380         0.284967
 C         3.655232         0.642139         0.433803
 C         3.197554        -0.732594         0.920161
 O         1.696517        -0.770086         0.927816
 H         5.326849        -0.315075        -1.786388
 H         5.231560        -1.805884        -0.888001
 H         4.136007        -1.663495        -2.172081
 H        -0.408309         0.776513         0.589543
 H        -0.296391         1.204500        -1.066248
 H        -0.551702        -0.592167        -0.669011
 H         2.300414         2.234326        -0.470542
 H         1.947454         1.788838         1.173952
 H         4.678901         1.149540         0.551988
 H         3.739090        -1.559964         1.433007
