19
Iteration:  2686
 C         4.509501        -0.970734        -1.552184
 C         3.508307        -0.542813        -0.556850
 O         2.356627        -0.293676        -1.241039
 C         1.524173         0.211413        -0.099124
 C         0.074208         0.505517        -0.510530
 C         2.374563         1.381579         0.479724
 C         3.610954         0.540161         0.626093
 C         3.060109        -0.863947         0.858413
 O         1.612098        -0.826104         0.837353
 H         4.432566        -0.184421        -2.393721
 H         5.533752        -1.000530        -1.129248
 H         4.264392        -1.941527        -2.028757
 H        -0.322966         0.657759         0.539381
 H         0.201909         1.405544        -1.268280
 H        -0.414378        -0.233640        -1.181430
 H         2.368469         2.141210        -0.265064
 H         2.104178         1.662764         1.473518
 H         4.501745         1.055755         0.964764
 H         3.570486        -1.540712         1.480346
