19
Iteration:  1986charge 0 multiplicity 1
 C         4.517604        -1.085898        -1.586409
 C         3.544351        -0.487062        -0.571574
 O         2.354572        -0.013929        -1.236572
 C         1.466712         0.285799        -0.133090
 C         0.176897         0.713601        -0.640699
 C         2.376193         1.307183         0.643892
 C         3.612850         0.424132         0.719478
 C         3.016376        -1.005236         0.833129
 O         1.580802        -0.982648         0.794277
 H         4.332317        -2.181130        -1.637168
 H         4.287749        -0.680878        -2.490893
 H         5.539177        -0.744063        -1.413265
 H        -0.543428         0.975926         0.189438
 H         0.331377         1.538940        -1.335001
 H        -0.371563        -0.159071        -1.149331
 H         2.563417         2.236975         0.063915
 H         2.147614         1.558446         1.724680
 H         4.498654         0.720009         1.280982
 H         3.398351        -1.903822         1.342419
