19
Iteration:   258
 C         4.597625        -1.052745        -1.300205
 C         3.415116        -0.437754        -0.651156
 O         2.123393        -0.532982        -1.228358
 C         1.368423         0.125366         0.028397
 C        -0.105908        -0.079109        -0.135490
 C         2.331569         1.449396        -0.151330
 C         3.664450         0.877266         0.295492
 C         3.294984        -0.493076         0.829432
 O         1.904317        -0.546560         1.105461
 H         5.239098        -1.466655        -0.409990
 H         4.256781        -1.963710        -1.915319
 H         5.250679        -0.359745        -1.928763
 H        -0.836270         0.334289         0.589116
 H        -0.337559         0.198599        -1.152182
 H        -0.331304        -1.163721        -0.263258
 H         2.353420         1.727996        -1.190361
 H         2.172133         2.502323         0.299048
 H         4.727651         1.188988         0.163920
 H         3.947906        -1.142135         1.479347
