19
Iteration:  1247charge 0 multiplicity 1
 C         4.621336        -1.028952        -1.495834
 C         3.554464        -0.510189        -0.559470
 O         2.330451        -0.068531        -1.253311
 C         1.501163         0.248217        -0.198803
 C         0.159586         0.648357        -0.468963
 C         2.366879         1.318968         0.597038
 C         3.630906         0.399336         0.677582
 C         2.966098        -0.959425         0.750920
 O         1.543068        -0.889003         0.726613
 H         4.984652        -0.073490        -2.026460
 H         5.479220        -1.529851        -0.955271
 H         4.069279        -1.632135        -2.272283
 H        -0.390335         0.922159         0.445186
 H         0.115281         1.362011        -1.251024
 H        -0.400050        -0.325764        -0.718346
 H         2.480254         2.240318         0.141104
 H         1.879154         1.411056         1.511777
 H         4.544370         0.594506         1.297821
 H         3.337812        -1.795780         1.293285
