19
Iteration:  2943charge 0 multiplicity 1
 C         4.610737        -1.102893        -1.437955
 C         3.465052        -0.438015        -0.646505
 O         2.254391        -0.208300        -1.299096
 C         1.472740         0.243279        -0.034848
 C         0.042621         0.377904        -0.442921
 C         2.422696         1.383112         0.484904
 C         3.625081         0.581379         0.498919
 C         3.097432        -0.861837         0.777016
 O         1.663297        -0.744047         0.883336
 H         5.612079        -1.121636        -0.915121
 H         4.304101        -2.135651        -1.635461
 H         4.692150        -0.500218        -2.431451
 H        -0.572686         0.672347         0.402172
 H        -0.136488         0.849822        -1.397165
 H        -0.346592        -0.578797        -0.824859
 H         2.431994         2.261968        -0.266668
 H         2.109877         1.638278         1.578027
 H         4.568574         0.941355         1.035612
 H         3.499016        -1.730586         1.397334
