19
Iteration:  4323
 C         4.574142        -1.242822        -1.412859
 C         3.548423        -0.421521        -0.633503
 O         2.206782        -0.518379        -1.194440
 C         1.418045         0.176076        -0.100792
 C        -0.008620         0.133315        -0.268104
 C         2.177519         1.491408         0.193433
 C         3.561305         0.809145         0.209375
 C         3.300192        -0.566722         0.880295
 O         1.854222        -0.610437         1.005336
 H         4.902374        -2.115046        -0.875437
 H         4.255914        -1.729195        -2.300149
 H         5.412709        -0.509313        -1.689509
 H        -0.436751         0.636382         0.594517
 H        -0.337548         0.635662        -1.148311
 H        -0.425383        -0.898993        -0.339096
 H         2.124367         2.469344        -0.279665
 H         1.997001         1.817693         1.128696
 H         4.453146         1.331050         0.545111
 H         3.911672        -0.874508         1.649906
