19
Iteration:  3741
 C         4.625923        -1.069455        -1.370061
 C         3.506633        -0.459830        -0.601869
 O         2.133231        -0.344492        -1.211364
 C         1.466768         0.124863        -0.081255
 C        -0.033539         0.328761        -0.267561
 C         2.308248         1.396921         0.067340
 C         3.542372         0.683729         0.411442
 C         3.245129        -0.681443         0.877670
 O         1.799010        -0.771707         0.978460
 H         5.256149        -1.850454        -0.871363
 H         4.223092        -1.415590        -2.278242
 H         5.539430        -0.475918        -1.699520
 H        -0.464957         0.785205         0.610630
 H        -0.000294         0.921507        -1.158815
 H        -0.514389        -0.635210        -0.473267
 H         2.348292         1.720400        -0.967035
 H         2.086627         2.245840         0.816281
 H         4.492077         1.331963         0.473097
 H         3.856617        -1.405583         1.529277
