19
Iteration:   837
 C         4.654671        -1.031458        -1.480882
 C         3.469776        -0.536923        -0.593232
 O         2.190685        -0.291732        -1.183968
 C         1.447583         0.233218        -0.111094
 C        -0.024947         0.277572        -0.425349
 C         2.435390         1.457435         0.328403
 C         3.631270         0.580354         0.419821
 C         3.096542        -0.798763         0.906756
 O         1.698482        -0.729065         0.919838
 H         4.346222        -0.822860        -2.514454
 H         5.436454        -0.195340        -1.307954
 H         5.055414        -2.028050        -1.341780
 H        -0.562980         0.740835         0.428616
 H        -0.098180         1.004264        -1.257774
 H        -0.170666        -0.774490        -0.700324
 H         2.599083         2.321738        -0.328251
 H         2.184699         1.846145         1.243513
 H         4.669261         0.951721         0.631612
 H         3.466138        -1.642734         1.519637
