19
Iteration:  2471
 C         4.666032        -1.155843        -1.377054
 C         3.499179        -0.455782        -0.596200
 O         2.275138        -0.107245        -1.359269
 C         1.473030         0.287999        -0.236744
 C         0.047275         0.497295        -0.350236
 C         2.360888         1.336125         0.523504
 C         3.564722         0.501935         0.559997
 C         3.066955        -0.892394         0.772007
 O         1.665017        -0.828468         0.790368
 H         4.391676        -1.174646        -2.459099
 H         5.770892        -0.617081        -1.587612
 H         4.973872        -2.143703        -0.990405
 H        -0.271173         0.760897         0.633227
 H        -0.286583         1.255834        -1.085446
 H        -0.560384        -0.331115        -0.567054
 H         2.462506         2.374734        -0.002199
 H         1.972253         1.311770         1.586688
 H         4.417530         0.852512         1.137014
 H         3.629264        -1.498580         1.556317
