19
Iteration:   608
 C         4.556530        -1.113993        -1.500854
 C         3.519351        -0.444296        -0.543610
 O         2.263310        -0.420705        -1.185128
 C         1.489215         0.223913        -0.194198
 C         0.009546         0.073784        -0.336218
 C         2.310369         1.522226         0.255579
 C         3.619368         0.739968         0.320520
 C         3.122729        -0.654000         0.865488
 O         1.757785        -0.672282         1.000149
 H         4.396801        -0.781546        -2.500668
 H         5.504957        -0.993432        -1.040423
 H         4.441673        -2.118123        -1.358441
 H        -0.309885         0.382826         0.680474
 H        -0.533637         0.779120        -1.056510
 H        -0.285524        -0.951785        -0.480375
 H         2.333997         2.370258        -0.525269
 H         1.906323         1.804725         1.201894
 H         4.577845         1.139131         0.643448
 H         3.789902        -1.064152         1.670012
