19
Iteration:  3918charge 0 multiplicity 1
 C         4.552020        -0.990189        -1.507479
 C         3.549847        -0.508366        -0.555820
 O         2.224432        -0.423924        -1.218143
 C         1.492916         0.122716        -0.151084
 C        -0.000562         0.296597        -0.348311
 C         2.336665         1.410792         0.167798
 C         3.586623         0.611428         0.411641
 C         3.177803        -0.705751         0.963097
 O         1.703104        -0.633028         1.004814
 H         5.554954        -1.252387        -1.033308
 H         4.360998        -1.926606        -2.129867
 H         4.781141        -0.225385        -2.299272
 H        -0.379873         0.675820         0.657626
 H        -0.378459         0.942350        -1.145280
 H        -0.274909        -0.729564        -0.606337
 H         2.405375         2.159461        -0.731950
 H         1.990978         1.929245         1.070820
 H         4.581693         1.044482         0.841905
 H         3.852915        -1.307112         1.711652
