19
Iteration:  1707charge 0 multiplicity 1
 C         4.538893        -0.987778        -1.485770
 C         3.495266        -0.517193        -0.500096
 O         2.408358        -0.024575        -1.327792
 C         1.571370         0.318458        -0.220986
 C         0.097649         0.589694        -0.559478
 C         2.446532         1.230106         0.673651
 C         3.579828         0.286016         0.709288
 C         2.942139        -1.049636         0.781106
 O         1.571946        -0.749270         0.752441
 H         4.698035        -1.986502        -1.601286
 H         4.068551        -0.722889        -2.428997
 H         5.432039        -0.451421        -1.557670
 H        -0.552249         0.703753         0.293036
 H         0.055414         1.521331        -1.011933
 H        -0.308917        -0.124568        -1.294384
 H         2.658987         2.362099         0.310242
 H         2.077782         1.298744         1.767792
 H         4.464830         0.530276         1.291888
 H         3.344371        -1.934506         1.334420
