19
Iteration:  4177
 C         4.605547        -1.170293        -1.441543
 C         3.524763        -0.542819        -0.568147
 O         2.203532        -0.486834        -1.219301
 C         1.469821         0.217513        -0.141642
 C        -0.035126         0.142441        -0.240979
 C         2.266127         1.454007         0.184113
 C         3.616219         0.822081         0.301699
 C         3.214235        -0.572691         0.861997
 O         1.804228        -0.602082         0.990556
 H         5.199186        -0.300563        -1.872319
 H         5.130923        -2.036093        -0.820721
 H         4.256831        -1.823007        -2.285672
 H        -0.423958         0.666208         0.603234
 H        -0.452475         0.609269        -1.124719
 H        -0.351560        -0.812330        -0.493655
 H         2.157778         2.358421        -0.386321
 H         1.918143         1.692750         1.159820
 H         4.540799         1.301767         0.479893
 H         3.647630        -1.185432         1.611275
