19
Iteration:  3624charge 0 multiplicity 1
 C         4.599533        -1.079677        -1.477297
 C         3.593597        -0.517265        -0.581438
 O         2.227778        -0.493852        -1.220724
 C         1.464430         0.188637        -0.193610
 C        -0.052348         0.256741        -0.303405
 C         2.267803         1.440155         0.213687
 C         3.640067         0.697232         0.333920
 C         3.148019        -0.691182         0.923219
 O         1.744132        -0.576560         1.013396
 H         5.355949        -1.711374        -0.985287
 H         4.144336        -1.655363        -2.325173
 H         5.358156        -0.418849        -1.987976
 H        -0.386467         0.498272         0.750365
 H        -0.312883         0.970818        -1.071657
 H        -0.534203        -0.747470        -0.392795
 H         2.205704         2.248173        -0.540488
 H         2.002214         1.755481         1.179342
 H         4.696985         1.128484         0.570854
 H         3.668334        -1.228366         1.815322
