19
Iteration:  4588
 C         4.597103        -1.257373        -1.360261
 C         3.490052        -0.420162        -0.631012
 O         2.175796        -0.343402        -1.186869
 C         1.463194         0.073143        -0.103008
 C         0.000879         0.068524        -0.241292
 C         2.218701         1.512381         0.046490
 C         3.587918         0.823911         0.299707
 C         3.314684        -0.572159         0.854537
 O         1.852401        -0.685316         1.039170
 H         4.682995        -2.219233        -0.803565
 H         4.069066        -1.182731        -2.395478
 H         5.431348        -0.593909        -1.340669
 H        -0.528342         0.620544         0.557724
 H        -0.354516         0.616432        -1.131528
 H        -0.517722        -0.850777        -0.127993
 H         2.227656         2.022449        -0.854969
 H         1.758309         2.257088         0.724837
 H         4.579392         1.354665         0.294092
 H         3.820277        -1.055610         1.738340
