19
Iteration:  3593
 C         4.601971        -1.016583        -1.341017
 C         3.454927        -0.531782        -0.606871
 O         2.126855        -0.393973        -1.264861
 C         1.469017         0.208781        -0.056299
 C        -0.041786         0.228151        -0.291840
 C         2.354982         1.495512         0.150216
 C         3.609262         0.615795         0.326276
 C         3.166341        -0.743003         0.813360
 O         1.827579        -0.680862         1.022022
 H         5.361952        -1.015972        -0.574963
 H         4.536383        -2.066020        -1.808933
 H         5.041068        -0.487253        -2.104470
 H        -0.440607         0.822189         0.630160
 H        -0.261301         0.901495        -1.172550
 H        -0.271000        -0.831067        -0.631542
 H         2.415098         2.054602        -0.880578
 H         2.208710         2.200861         0.959672
 H         4.672354         0.997475         0.530066
 H         3.765631        -1.216237         1.690967
