19
Iteration:  1591
 C         4.586569        -0.978913        -1.387565
 C         3.435072        -0.488189        -0.546941
 O         2.296220         0.073878        -1.266740
 C         1.508443         0.327015        -0.140505
 C         0.165089         0.719090        -0.587231
 C         2.496991         1.359638         0.607590
 C         3.604961         0.228887         0.751876
 C         2.948240        -1.196557         0.632218
 O         1.576135        -0.949024         0.766455
 H         5.563245        -0.636545        -0.859551
 H         4.540595        -2.104359        -1.682300
 H         4.465925        -0.421198        -2.368412
 H        -0.488944         1.175138         0.191351
 H         0.342844         1.526045        -1.306178
 H        -0.384998        -0.114303        -1.188697
 H         2.640403         2.147482        -0.031910
 H         2.044442         1.682856         1.529953
 H         4.643760         0.281673         1.119736
 H         3.407014        -1.939637         1.321131
