19
Iteration:  2353charge 0 multiplicity 1
 C         4.685439        -1.051473        -1.276528
 C         3.445953        -0.433481        -0.621068
 O         2.233879        -0.071457        -1.309797
 C         1.428675         0.214787        -0.054695
 C         0.011588         0.628116        -0.449718
 C         2.369166         1.341452         0.473332
 C         3.667971         0.421173         0.562187
 C         3.108808        -0.998287         0.658491
 O         1.694304        -0.898532         0.805383
 H         4.818308        -2.079791        -1.039893
 H         4.502324        -1.165101        -2.304937
 H         5.522942        -0.427666        -1.172284
 H        -0.668001         0.894004         0.404867
 H        -0.017465         1.585989        -1.141959
 H        -0.691372        -0.074162        -1.034209
 H         2.445971         2.113575        -0.246336
 H         2.118725         1.639266         1.455208
 H         4.674049         0.611226         1.031360
 H         3.513489        -1.797806         1.284987
