19
Iteration:  3443charge 0 multiplicity 1
 C         4.644869        -1.093504        -1.431914
 C         3.509539        -0.471590        -0.573434
 O         2.193386        -0.481771        -1.210675
 C         1.453529         0.121605        -0.076948
 C        -0.010688         0.383193        -0.257967
 C         2.216367         1.422846         0.122976
 C         3.615551         0.720639         0.364093
 C         3.241022        -0.633940         0.848566
 O         1.793043        -0.762347         0.967818
 H         5.269305        -1.796114        -0.897012
 H         4.103491        -1.844121        -2.051276
 H         5.167674        -0.215051        -1.858556
 H        -0.470538         0.831141         0.613425
 H         0.014174         1.102872        -1.079227
 H        -0.590100        -0.448456        -0.516755
 H         2.183114         2.077868        -0.775362
 H         1.979140         2.035759         0.954923
 H         4.545786         1.218629         0.649248
 H         3.657299        -1.207733         1.580236
