19
Iteration:  4181charge 0 multiplicity 1
 C         4.588518        -1.164233        -1.438958
 C         3.515651        -0.550529        -0.559908
 O         2.189161        -0.494046        -1.241786
 C         1.464000         0.175608        -0.149654
 C        -0.028027         0.169449        -0.246271
 C         2.266510         1.469921         0.157483
 C         3.576757         0.824870         0.325203
 C         3.272644        -0.573685         0.907162
 O         1.787711        -0.624281         0.995405
 H         5.279840        -0.375466        -1.816812
 H         5.166172        -1.924201        -0.950396
 H         4.201934        -1.705933        -2.361549
 H        -0.427259         0.704697         0.664363
 H        -0.331797         0.733184        -1.207282
 H        -0.358727        -0.908766        -0.483467
 H         2.277564         2.457018        -0.464050
 H         1.983687         1.839755         1.171802
 H         4.548006         1.367305         0.427911
 H         3.840075        -1.263568         1.698834
