19
Iteration:  2210
 C         4.645839        -1.060327        -1.378231
 C         3.506575        -0.486768        -0.575936
 O         2.256919        -0.090886        -1.277479
 C         1.493046         0.280745        -0.124581
 C         0.121902         0.679260        -0.363390
 C         2.370344         1.377902         0.471562
 C         3.646741         0.482897         0.654860
 C         3.035299        -1.029538         0.763268
 O         1.565515        -1.001350         0.651548
 H         5.244326        -0.236336        -1.719899
 H         5.402302        -1.578738        -0.770632
 H         4.151624        -1.550139        -2.149205
 H        -0.437927         0.961070         0.598278
 H         0.267965         1.635900        -1.125945
 H        -0.414170        -0.138366        -0.872852
 H         2.384894         2.158344        -0.291497
 H         1.931455         1.823509         1.338947
 H         4.659956         0.654125         0.992449
 H         3.489966        -1.941729         1.312485
