19
Iteration:   926
 C         4.634284        -1.115181        -1.421904
 C         3.500664        -0.516460        -0.647333
 O         2.214890        -0.194893        -1.263492
 C         1.541148         0.291558        -0.203214
 C         0.018407         0.294889        -0.416683
 C         2.333888         1.430298         0.470960
 C         3.635461         0.530558         0.547621
 C         3.119093        -0.881233         0.773388
 O         1.673729        -0.652932         0.872130
 H         5.310795        -1.623319        -0.692954
 H         4.293906        -1.628131        -2.428870
 H         5.297939        -0.260303        -1.834424
 H        -0.426649         0.575691         0.594987
 H        -0.493900         1.001562        -1.082877
 H        -0.314420        -0.789670        -0.698926
 H         2.534557         2.334794        -0.081844
 H         1.826899         1.665031         1.363396
 H         4.583985         0.647106         0.979870
 H         3.455207        -1.515449         1.578020
