19
Iteration:  4830charge 0 multiplicity 1
 C         4.644704        -1.012377        -1.470642
 C         3.411584        -0.535854        -0.597327
 O         2.139245        -0.568527        -1.104469
 C         1.453277         0.146304        -0.035948
 C         0.011355         0.155594        -0.342046
 C         2.285111         1.466164         0.036784
 C         3.588865         0.738129         0.226288
 C         3.320768        -0.566502         0.884397
 O         1.791285        -0.589855         1.146248
 H         5.489765        -0.868689        -0.767614
 H         4.490145        -2.088148        -1.781266
 H         4.868005        -0.377096        -2.348513
 H        -0.617682         0.427978         0.460911
 H        -0.307698         0.745357        -1.161738
 H        -0.341915        -0.840577        -0.632926
 H         2.334610         1.954572        -0.956419
 H         1.916897         2.108631         0.900706
 H         4.594318         1.319971         0.279792
 H         3.778342        -1.299508         1.610326
