19
Iteration:  1469charge 0 multiplicity 1
 C         4.666086        -1.067589        -1.439959
 C         3.505026        -0.465451        -0.622029
 O         2.332065        -0.033408        -1.348655
 C         1.575971         0.334417        -0.238553
 C         0.171220         0.726123        -0.488474
 C         2.401941         1.237588         0.702400
 C         3.541095         0.307005         0.679277
 C         2.920755        -1.059720         0.757265
 O         1.538349        -0.833006         0.745273
 H         5.377504        -1.495604        -0.709022
 H         4.310681        -1.974661        -2.099183
 H         5.054427        -0.214063        -2.057881
 H        -0.164998         0.911921         0.557473
 H        -0.025964         1.710176        -1.012615
 H        -0.475824         0.013558        -1.019524
 H         2.453783         2.170886         0.325625
 H         2.029183         1.120157         1.695724
 H         4.499068         0.588325         1.139697
 H         3.309581        -1.865469         1.297215
