19
Iteration:  3261
 C         4.466401        -1.092150        -1.493398
 C         3.470673        -0.505847        -0.561228
 O         2.284689        -0.358919        -1.245278
 C         1.474067         0.197988        -0.016913
 C         0.002485         0.231717        -0.390572
 C         2.377473         1.473727         0.194849
 C         3.613597         0.726158         0.471883
 C         3.179231        -0.735511         0.892533
 O         1.750877        -0.759352         0.995396
 H         5.361552        -0.459771        -1.574826
 H         4.948070        -1.992940        -1.175748
 H         4.060219        -1.081262        -2.542510
 H        -0.650202         0.772069         0.307110
 H        -0.197640         1.138146        -1.109922
 H        -0.320482        -0.799641        -0.694195
 H         2.277637         1.939273        -0.775913
 H         2.093776         2.206750         1.011820
 H         4.592333         1.191597         0.742908
 H         3.942052        -1.331908         1.329626
