19
Iteration:   783charge 0 multiplicity 1
 C         4.632244        -1.114527        -1.449649
 C         3.516425        -0.498437        -0.547442
 O         2.251266        -0.408002        -1.279543
 C         1.438882         0.237437        -0.137875
 C        -0.023099         0.404430        -0.386208
 C         2.289673         1.391503         0.368734
 C         3.599939         0.718936         0.388822
 C         3.186227        -0.696619         0.880327
 O         1.758787        -0.806474         0.910701
 H         5.324071        -0.367236        -1.781798
 H         5.056826        -2.024245        -0.959488
 H         4.119702        -1.281181        -2.368565
 H        -0.380833         0.626169         0.690056
 H        -0.260092         1.183409        -1.193235
 H        -0.445604        -0.611896        -0.635081
 H         2.178276         2.238578        -0.367504
 H         1.905527         1.696926         1.298853
 H         4.638292         1.067518         0.730673
 H         3.704480        -1.165989         1.759698
