19
Iteration:   240charge 0 multiplicity 1
 C         4.676403        -1.128500        -1.321966
 C         3.501478        -0.530870        -0.629484
 O         2.137318        -0.507034        -1.170092
 C         1.446018         0.168209        -0.149117
 C        -0.027097        -0.058978        -0.127064
 C         2.224329         1.533971        -0.110223
 C         3.546437         0.808023         0.106217
 C         3.241863        -0.496124         0.917508
 O         1.886785        -0.552691         1.130862
 H         5.144058        -1.884459        -0.677899
 H         4.349136        -1.527075        -2.272280
 H         5.333159        -0.294136        -1.510368
 H        -0.343556         0.420692         0.827970
 H        -0.628885         0.427507        -0.880683
 H        -0.315456        -1.126638        -0.016822
 H         2.160171         2.061245        -1.118912
 H         1.883533         2.176232         0.674656
 H         4.439410         1.383593         0.411395
 H         3.963771        -0.979811         1.638404
