19
Iteration:  2730charge 0 multiplicity 1
 C         4.571666        -1.012654        -1.429144
 C         3.433872        -0.525943        -0.602787
 O         2.234473        -0.147598        -1.239724
 C         1.472082         0.216768        -0.067839
 C         0.049686         0.395000        -0.527212
 C         2.496815         1.446474         0.496338
 C         3.626324         0.530609         0.571763
 C         3.052718        -0.940755         0.737941
 O         1.659853        -0.800461         0.846716
 H         4.385338        -0.720458        -2.473867
 H         5.437678        -0.418316        -1.025897
 H         4.706734        -2.069636        -1.203397
 H        -0.488408         0.531256         0.444287
 H         0.121508         1.323300        -1.209471
 H        -0.269351        -0.427263        -1.167098
 H         2.769158         2.175079        -0.219831
 H         2.157220         1.823679         1.420629
 H         4.671306         0.711276         0.960520
 H         3.437239        -1.825103         1.288354
