19
Iteration:  4637charge 0 multiplicity 1
 C         4.570874        -1.262828        -1.503565
 C         3.483888        -0.481976        -0.587829
 O         2.199909        -0.453028        -1.179765
 C         1.454752         0.174766        -0.149452
 C         0.012248         0.068505        -0.388373
 C         2.210135         1.511213         0.207902
 C         3.530287         0.803232         0.205203
 C         3.277514        -0.529761         0.953064
 O         1.919115        -0.583560         1.127994
 H         4.877933        -1.864365        -0.678095
 H         4.132549        -1.611187        -2.350744
 H         5.481282        -0.577950        -1.668269
 H        -0.597484         0.462960         0.443785
 H        -0.378189         0.633164        -1.233365
 H        -0.422385        -1.003249        -0.403873
 H         1.961337         2.332649        -0.582161
 H         1.937351         1.827033         1.210391
 H         4.461711         1.306337         0.316951
 H         3.855481        -1.065579         1.611248
