19
Iteration:    75charge 0 multiplicity 1
 C         4.608524        -1.095069        -1.354434
 C         3.432804        -0.511986        -0.712339
 O         2.090901        -0.705692        -1.080263
 C         1.483567         0.026481        -0.015052
 C        -0.014800         0.010916        -0.305461
 C         2.085248         1.440959         0.054616
 C         3.476686         0.907537        -0.007045
 C         3.397253        -0.380206         0.784324
 O         2.047358        -0.470478         1.273480
 H         5.260908        -0.409687        -1.888814
 H         5.136532        -1.536642        -0.551625
 H         4.324804        -1.873467        -2.015169
 H        -0.516335         0.479823         0.555792
 H        -0.173686         0.655916        -1.209991
 H        -0.397095        -1.006794        -0.510267
 H         1.728869         2.127778        -0.703841
 H         1.945747         2.053582         0.995429
 H         4.369853         1.468788         0.140724
 H         4.163743        -0.679932         1.448410
