19
Iteration:   669charge 0 multiplicity 1
 C         4.595281        -0.978874        -1.411414
 C         3.497415        -0.459966        -0.597563
 O         2.158002        -0.459757        -1.189662
 C         1.457556         0.144424        -0.053442
 C         0.007545         0.322837        -0.366055
 C         2.292838         1.381950         0.189910
 C         3.602766         0.777552         0.366373
 C         3.191992        -0.710758         0.891375
 O         1.811575        -0.786501         0.971261
 H         4.371789        -2.032530        -1.806092
 H         4.765213        -0.429304        -2.365113
 H         5.542697        -1.249074        -0.786697
 H        -0.499227         0.950427         0.378077
 H         0.045908         0.895413        -1.290793
 H        -0.484616        -0.648627        -0.567973
 H         2.296880         1.980926        -0.676463
 H         1.977073         2.067180         1.029064
 H         4.563396         1.318993         0.536344
 H         3.843225        -1.397295         1.497342
