19
Iteration:   846
 C         4.569674        -0.992454        -1.470315
 C         3.526182        -0.495156        -0.541721
 O         2.212914        -0.315128        -1.195133
 C         1.508214         0.216455        -0.160370
 C        -0.003099         0.290290        -0.456888
 C         2.398342         1.380462         0.386715
 C         3.646862         0.611456         0.385775
 C         3.071689        -0.807507         0.871540
 O         1.723550        -0.701600         0.934344
 H         4.171414        -1.233421        -2.525900
 H         5.533802        -0.342924        -1.695923
 H         5.010677        -1.908195        -1.068422
 H        -0.461561         0.719878         0.417828
 H        -0.166180         1.058730        -1.245262
 H        -0.638393        -0.500573        -0.702688
 H         2.329607         2.244785        -0.266218
 H         2.121525         1.551982         1.404330
 H         4.673422         0.988672         0.732161
 H         3.510083        -1.505781         1.623663
