19
Iteration:  2249
 C         4.588510        -0.977186        -1.484668
 C         3.500202        -0.494167        -0.537203
 O         2.218711        -0.164463        -1.298099
 C         1.545851         0.302927        -0.210004
 C         0.110456         0.616886        -0.598484
 C         2.387465         1.296870         0.645693
 C         3.699354         0.395499         0.627270
 C         3.060450        -1.000093         0.801332
 O         1.579800        -0.812230         0.872334
 H         5.514558        -0.360882        -1.485472
 H         4.715443        -2.092254        -1.339275
 H         4.328145        -0.977779        -2.594871
 H        -0.610363         0.920162         0.138311
 H        -0.024415         1.413079        -1.261415
 H        -0.256692        -0.297214        -1.077161
 H         2.432758         2.394832         0.292743
 H         1.885115         1.387607         1.687895
 H         4.728540         0.683946         0.886405
 H         3.482601        -1.885386         1.313958
