19
Iteration:  4026
 C         4.648731        -1.112833        -1.417452
 C         3.484286        -0.491291        -0.581955
 O         2.237067        -0.433758        -1.275927
 C         1.474958         0.215764        -0.158520
 C        -0.008338         0.194479        -0.291375
 C         2.233386         1.514947         0.232391
 C         3.671736         0.696804         0.291888
 C         3.208504        -0.658194         0.900781
 O         1.749770        -0.675988         0.998194
 H         4.102053        -1.923605        -1.912850
 H         4.956932        -0.462023        -2.064281
 H         5.345617        -1.532963        -0.727052
 H        -0.441889         0.545392         0.718676
 H        -0.502803         0.799920        -1.095022
 H        -0.443356        -0.818789        -0.211789
 H         2.122005         2.290523        -0.624811
 H         1.872505         1.898212         1.191703
 H         4.634450         1.215333         0.547750
 H         3.694115        -1.322800         1.584661
