19
Iteration:  1776
 C         4.672426        -1.061457        -1.372126
 C         3.537876        -0.484193        -0.623798
 O         2.251689        -0.132703        -1.306531
 C         1.518669         0.312585        -0.232284
 C         0.118541         0.752030        -0.426566
 C         2.331206         1.190007         0.711602
 C         3.578194         0.386326         0.591259
 C         3.025780        -0.985063         0.683670
 O         1.595862        -0.832713         0.692959
 H         4.416891        -1.991949        -1.878102
 H         5.142450        -0.396175        -2.069012
 H         5.479559        -1.231392        -0.638017
 H        -0.240060         1.083634         0.564847
 H         0.147992         1.722841        -1.048830
 H        -0.482068        -0.015515        -0.907374
 H         2.412921         2.261716         0.578163
 H         1.925195         1.037192         1.759432
 H         4.482189         0.810812         1.014180
 H         3.438173        -1.910612         1.120479
