19
Iteration:  1962charge 0 multiplicity 1
 C         4.518783        -0.992285        -1.422221
 C         3.437888        -0.473748        -0.614288
 O         2.283034        -0.027791        -1.202772
 C         1.480040         0.361514        -0.026367
 C         0.108767         0.567509        -0.623150
 C         2.484593         1.340466         0.647003
 C         3.714478         0.322337         0.656215
 C         2.985603        -1.069810         0.720126
 O         1.599004        -0.868679         0.711358
 H         4.328371        -2.061154        -1.589887
 H         4.622284        -0.487595        -2.342004
 H         5.426746        -0.783063        -0.880618
 H        -0.705510         0.730315         0.039423
 H         0.219973         1.399006        -1.333703
 H        -0.127476        -0.291043        -1.156479
 H         2.900014         2.008786        -0.130708
 H         2.212676         1.955442         1.589999
 H         4.730972         0.427045         1.101240
 H         3.193851        -1.975132         1.193178
