19
Iteration:   520charge 0 multiplicity 1
 C         4.609066        -1.045508        -1.404495
 C         3.512333        -0.461111        -0.579630
 O         2.189858        -0.510765        -1.203724
 C         1.468815         0.087382        -0.105914
 C        -0.087901         0.229953        -0.340115
 C         2.222968         1.432697         0.112361
 C         3.589427         0.773782         0.232403
 C         3.286581        -0.585083         0.911621
 O         1.829250        -0.696053         1.096069
 H         5.522534        -1.259234        -0.826897
 H         4.320364        -2.041264        -1.770916
 H         4.893634        -0.399410        -2.186556
 H        -0.309546         0.783401         0.589158
 H        -0.108698         0.814104        -1.295042
 H        -0.676335        -0.706079        -0.377228
 H         2.115123         2.311982        -0.608301
 H         1.841413         1.812022         1.096501
 H         4.579433         1.300389         0.338057
 H         3.983728        -1.249011         1.530280
