19
Iteration:    71
 C         4.606329        -1.101636        -1.401459
 C         3.457807        -0.516475        -0.728313
 O         2.104933        -0.728785        -1.106297
 C         1.479815         0.030674        -0.027399
 C         0.016134        -0.005102        -0.287064
 C         2.113265         1.423483         0.069092
 C         3.449357         0.910199        -0.011473
 C         3.354891        -0.340695         0.842538
 O         2.009514        -0.437348         1.278621
 H         5.313119        -0.347625        -1.876617
 H         5.166314        -1.637780        -0.532821
 H         4.227576        -1.898229        -2.148870
 H        -0.478626         0.425678         0.585346
 H        -0.179868         0.644081        -1.172966
 H        -0.309337        -1.021548        -0.491827
 H         1.779804         2.225351        -0.621384
 H         2.030106         1.948163         1.058350
 H         4.380312         1.466651         0.138272
 H         4.192832        -0.706313         1.520003
