19
Iteration:  3346
 C         4.516820        -1.170430        -1.454473
 C         3.478684        -0.396235        -0.599068
 O         2.213256        -0.341227        -1.202379
 C         1.504751         0.133288        -0.043460
 C        -0.012105         0.303603        -0.350953
 C         2.302036         1.466585         0.177127
 C         3.584201         0.743148         0.417537
 C         3.236573        -0.704051         0.822793
 O         1.817585        -0.778605         1.005166
 H         5.244904        -1.413587        -0.624468
 H         4.114576        -2.159280        -1.823302
 H         4.972703        -0.463262        -2.274108
 H        -0.536020         0.614428         0.516946
 H        -0.042664         0.831047        -1.317435
 H        -0.476392        -0.631041        -0.507359
 H         2.184082         1.881304        -0.784128
 H         1.930547         2.125951         0.883791
 H         4.528187         1.135987         0.760110
 H         3.940246        -1.265677         1.373359
