19
Iteration:  4998
 C         4.735553        -1.027743        -1.431161
 C         3.549290        -0.543471        -0.572059
 O         2.171200        -0.649887        -1.155978
 C         1.413690         0.175244        -0.203922
 C        -0.074303         0.246111        -0.242809
 C         2.185913         1.421673         0.009389
 C         3.588464         0.778266         0.236097
 C         3.273076        -0.583850         0.955912
 O         1.810831        -0.612628         1.123849
 H         5.662123        -0.426554        -1.260786
 H         4.865412        -2.100442        -1.211688
 H         4.310956        -0.781187        -2.523519
 H        -0.366771         0.799542         0.734672
 H        -0.462509         0.903756        -1.155658
 H        -0.742547        -0.654465        -0.349694
 H         2.143743         2.050134        -0.854187
 H         2.022792         1.848256         0.928087
 H         4.592637         1.395279         0.221739
 H         3.885537        -1.189868         1.652378
