19
Iteration:  2427
 C         4.494283        -0.974726        -1.487554
 C         3.503659        -0.419276        -0.570519
 O         2.199447        -0.176646        -1.201893
 C         1.533645         0.245724        -0.097616
 C         0.189179         0.520600        -0.588376
 C         2.401229         1.390809         0.517563
 C         3.602811         0.476064         0.603141
 C         3.045710        -0.978286         0.735083
 O         1.676822        -0.895161         0.904141
 H         4.029522        -1.673702        -2.214304
 H         5.197084        -0.158943        -2.023041
 H         5.209521        -1.570369        -0.889341
 H        -0.506131         0.835384         0.148714
 H         0.235871         1.192307        -1.466880
 H        -0.298024        -0.227626        -1.136153
 H         2.548287         2.135381        -0.358679
 H         1.922836         1.740633         1.480074
 H         4.567772         0.669086         1.116868
 H         3.505711        -1.678257         1.447326
