19
Iteration:  3698
 C         4.572505        -1.167169        -1.426881
 C         3.516462        -0.525481        -0.613051
 O         2.178347        -0.373164        -1.237030
 C         1.462223         0.225321        -0.183360
 C         0.007224         0.153707        -0.366107
 C         2.270632         1.418014         0.314978
 C         3.645855         0.752526         0.306131
 C         3.152587        -0.648406         0.906556
 O         1.813218        -0.575028         1.006341
 H         5.078892        -2.156133        -1.115155
 H         4.178872        -1.531746        -2.374000
 H         5.531525        -0.534284        -1.748051
 H        -0.451045         0.399867         0.559753
 H        -0.269765         0.717436        -1.187259
 H        -0.288292        -0.856680        -0.252217
 H         2.392241         2.291239        -0.280604
 H         1.758685         1.608522         1.299212
 H         4.704565         1.275378         0.442551
 H         3.650958        -1.287537         1.762758
