19
Iteration:  1610
 C         4.694353        -0.970078        -1.468682
 C         3.474500        -0.540915        -0.559450
 O         2.374119        -0.027559        -1.273914
 C         1.510824         0.398494        -0.151008
 C         0.066588         0.657275        -0.477721
 C         2.539917         1.241591         0.687789
 C         3.634971         0.275971         0.698479
 C         2.886269        -1.052018         0.764889
 O         1.462760        -0.819836         0.611607
 H         5.572315        -1.034448        -0.848433
 H         4.537553        -2.022054        -1.909048
 H         4.848841        -0.265192        -2.289769
 H        -0.451731         0.977914         0.439616
 H        -0.200641         1.333251        -1.259443
 H        -0.297326        -0.336139        -0.854106
 H         2.881290         2.060668         0.011035
 H         2.109648         1.575438         1.654021
 H         4.493954         0.518875         1.280859
 H         3.104033        -2.120534         1.107794
