19
Iteration:  1790
 C         4.689091        -1.069584        -1.414653
 C         3.493868        -0.499214        -0.620474
 O         2.253551        -0.114760        -1.311529
 C         1.486911         0.300500        -0.094857
 C         0.119335         0.754205        -0.472584
 C         2.345959         1.318482         0.713517
 C         3.646562         0.468936         0.645249
 C         3.013839        -1.037725         0.734820
 O         1.626547        -0.924257         0.621757
 H         4.183177        -1.718360        -2.271965
 H         5.154254        -0.213498        -1.933259
 H         5.349659        -1.799234        -0.810672
 H        -0.457039         1.037282         0.465579
 H         0.076915         1.589112        -1.287270
 H        -0.444962        -0.103106        -0.898770
 H         2.389505         2.223628         0.193607
 H         1.893340         1.302462         1.667224
 H         4.595122         0.579529         1.189137
 H         3.313261        -1.852819         1.493934
