19
Iteration:   328
 C         4.524108        -1.137375        -1.406339
 C         3.555947        -0.394019        -0.570884
 O         2.120638        -0.608533        -1.097825
 C         1.462674         0.089262        -0.070236
 C        -0.040964         0.098958        -0.382129
 C         2.175195         1.474786        -0.005531
 C         3.556836         0.911250         0.239503
 C         3.333984        -0.478506         0.855820
 O         1.980531        -0.685944         1.183292
 H         5.265422        -0.572084        -1.970856
 H         5.092379        -1.869985        -0.820786
 H         3.930015        -1.702391        -2.146338
 H        -0.483665         0.739628         0.399252
 H        -0.136628         0.578009        -1.400108
 H        -0.617688        -0.810453        -0.430087
 H         2.007189         2.025114        -0.967813
 H         1.755654         2.104694         0.701704
 H         4.409754         1.517738         0.482005
 H         4.035943        -0.827726         1.555010
