19
Iteration:  1806
 C         4.545032        -1.017613        -1.482913
 C         3.491364        -0.457799        -0.567520
 O         2.395144        -0.013461        -1.242473
 C         1.492251         0.244483        -0.099991
 C         0.084093         0.645181        -0.505332
 C         2.437435         1.315834         0.596096
 C         3.589525         0.348901         0.705083
 C         3.015527        -0.979546         0.719864
 O         1.538126        -0.966599         0.715530
 H         4.201800        -1.437290        -2.365511
 H         5.393307        -0.332666        -1.699724
 H         5.063363        -1.784727        -0.961837
 H        -0.518170         1.075003         0.255321
 H         0.280827         1.371506        -1.221324
 H        -0.505735        -0.131744        -0.980325
 H         2.724080         2.221491        -0.124602
 H         2.240465         1.833468         1.602901
 H         4.521903         0.740225         1.098897
 H         3.479629        -1.823641         1.117334
