19
Iteration:  2474
 C         4.670444        -1.144115        -1.377768
 C         3.522807        -0.448656        -0.568147
 O         2.292974        -0.126772        -1.378866
 C         1.480880         0.303595        -0.220155
 C         0.063796         0.495639        -0.321977
 C         2.366238         1.357676         0.495793
 C         3.553923         0.515609         0.582571
 C         3.059385        -0.913569         0.742038
 O         1.643855        -0.816739         0.785744
 H         4.307491        -1.202652        -2.391592
 H         5.620338        -0.655411        -1.463457
 H         4.948023        -2.160531        -1.102945
 H        -0.236666         0.722084         0.723595
 H        -0.365310         1.155018        -1.062157
 H        -0.583957        -0.393711        -0.606572
 H         2.388774         2.273097         0.029809
 H         2.020711         1.351100         1.485464
 H         4.398721         0.862424         1.123827
 H         3.585113        -1.595209         1.428066
