19
Iteration:  2380charge 0 multiplicity 1
 C         4.623647        -0.978780        -1.506713
 C         3.478532        -0.508760        -0.606903
 O         2.311648        -0.195373        -1.228165
 C         1.539474         0.307559        -0.184709
 C         0.113684         0.527001        -0.422385
 C         2.414458         1.399032         0.483092
 C         3.633285         0.434214         0.655831
 C         2.979078        -0.951416         0.832153
 O         1.550792        -0.834301         0.753796
 H         4.666777        -2.124147        -1.470223
 H         4.416971        -0.562585        -2.612184
 H         5.634286        -0.544948        -1.158050
 H        -0.236074         0.589088         0.621038
 H        -0.196622         1.265903        -1.096565
 H        -0.383458        -0.318114        -0.898280
 H         2.664798         2.319387        -0.154660
 H         1.973583         1.601543         1.514219
 H         4.587602         0.568636         1.130173
 H         3.365383        -1.817641         1.380533
