19
Iteration:  4752charge 0 multiplicity 1
 C         4.544272        -1.270535        -1.318445
 C         3.474417        -0.375730        -0.626688
 O         2.231894        -0.360675        -1.194688
 C         1.439326         0.145122        -0.016033
 C        -0.072855         0.090462        -0.312912
 C         2.188456         1.437615         0.131732
 C         3.620823         0.813839         0.225925
 C         3.346198        -0.540169         0.831807
 O         1.876321        -0.689903         1.025109
 H         5.552169        -0.804675        -1.173335
 H         4.597925        -2.411402        -0.960108
 H         4.380301        -1.297393        -2.367451
 H        -0.637997         0.720669         0.371199
 H        -0.105839         0.664960        -1.233260
 H        -0.543494        -0.865051        -0.292475
 H         1.974029         2.263006        -0.644082
 H         1.843137         2.066309         1.061090
 H         4.501442         1.367141         0.335244
 H         3.908296        -1.249643         1.312808
