19
Iteration:  3439charge 0 multiplicity 1
 C         4.635055        -1.099360        -1.426905
 C         3.512296        -0.473478        -0.578194
 O         2.190365        -0.448006        -1.175071
 C         1.432266         0.111686        -0.091021
 C         0.015276         0.394482        -0.270378
 C         2.274864         1.428482         0.091534
 C         3.576800         0.742740         0.353301
 C         3.229757        -0.637234         0.851140
 O         1.805905        -0.794358         0.994363
 H         5.223372        -1.715343        -0.739518
 H         4.058511        -1.633257        -2.205568
 H         5.142343        -0.325271        -1.913232
 H        -0.583730         0.737620         0.625034
 H        -0.038138         1.015038        -1.182938
 H        -0.690628        -0.465203        -0.568585
 H         2.156991         2.044789        -0.876487
 H         1.978541         2.034485         1.005381
 H         4.522726         1.092909         0.725642
 H         3.860177        -1.274147         1.548647
