19
Iteration:  4542charge 0 multiplicity 1
 C         4.633945        -0.984564        -1.484166
 C         3.443835        -0.593045        -0.573170
 O         2.112294        -0.649126        -1.088202
 C         1.440764         0.088161        -0.107445
 C        -0.007084         0.181712        -0.340319
 C         2.260238         1.412031         0.077990
 C         3.616869         0.788354         0.239624
 C         3.258506        -0.500979         0.909828
 O         1.876998        -0.561031         1.105442
 H         4.422711        -2.010879        -1.812208
 H         4.679376        -0.149413        -2.218355
 H         5.633881        -1.014329        -0.878240
 H        -0.570769         0.633055         0.438792
 H        -0.137604         0.859174        -1.146913
 H        -0.536989        -0.749050        -0.436288
 H         2.165222         2.143442        -0.774550
 H         1.979565         2.031600         0.956318
 H         4.585173         1.266002         0.191539
 H         3.868798        -1.107805         1.424404
