19
Iteration:  4934charge 0 multiplicity 1
 C         4.507574        -1.270589        -1.394632
 C         3.511238        -0.469072        -0.641455
 O         2.192778        -0.426175        -1.174573
 C         1.456513         0.220136        -0.085129
 C         0.052910        -0.096175        -0.373286
 C         2.195613         1.543452         0.199671
 C         3.588519         0.795690         0.225695
 C         3.262470        -0.507105         0.838726
 O         1.875995        -0.513308         1.100002
 H         5.382291        -1.576477        -0.759543
 H         4.135487        -2.355662        -1.628425
 H         4.749377        -0.811409        -2.449308
 H        -0.628662         0.504130         0.343979
 H        -0.172682         0.384210        -1.421910
 H        -0.218592        -1.186673        -0.251990
 H         2.012712         2.446728        -0.405085
 H         1.989129         1.944481         1.165555
 H         4.498530         1.379013         0.603299
 H         3.940935        -1.033730         1.442272
