19
Iteration:  4691
 C         4.615909        -0.985825        -1.478702
 C         3.571966        -0.597307        -0.530068
 O         2.148063        -0.603115        -1.148502
 C         1.456684         0.185997        -0.157425
 C        -0.017697         0.222054        -0.282664
 C         2.265835         1.437514        -0.034946
 C         3.589880         0.764988         0.262296
 C         3.237885        -0.613023         0.953518
 O         1.783343        -0.627080         1.158814
 H         5.565048        -1.379689        -1.087135
 H         4.123616        -1.550165        -2.222742
 H         4.873897        -0.023906        -2.039201
 H        -0.310234         0.637575         0.718091
 H        -0.410420         0.855020        -1.095634
 H        -0.425592        -0.841678        -0.478259
 H         2.304042         1.895946        -1.000121
 H         1.917314         1.978422         0.777435
 H         4.581216         1.236188         0.470566
 H         3.914817        -0.858650         1.696265
