19
Iteration:   206
 C         4.532072        -1.164251        -1.402089
 C         3.514740        -0.449147        -0.610740
 O         2.218570        -0.753470        -1.120712
 C         1.435312         0.018445        -0.103002
 C        -0.094069         0.067450        -0.310464
 C         2.119149         1.454779         0.039956
 C         3.541642         0.960837         0.118322
 C         3.375630        -0.308841         0.903400
 O         1.978903        -0.573033         1.151653
 H         4.425054        -2.289402        -1.350961
 H         4.488413        -0.926492        -2.480682
 H         5.543652        -0.921097        -1.043912
 H        -0.421291         0.593639         0.625943
 H        -0.227668         0.798410        -1.097339
 H        -0.765456        -0.805523        -0.519119
 H         2.040551         2.141967        -0.812444
 H         1.980419         2.007910         0.975451
 H         4.334260         1.628706         0.546571
 H         4.039396        -0.714977         1.719737
