19
Iteration:  1929
 C         4.678088        -1.034100        -1.444387
 C         3.480944        -0.579945        -0.570223
 O         2.400044        -0.060080        -1.302510
 C         1.464640         0.337371        -0.251521
 C         0.014578         0.597644        -0.382066
 C         2.370876         1.334965         0.628698
 C         3.650475         0.339161         0.609700
 C         2.964405        -1.023820         0.729257
 O         1.587560        -0.776314         0.712966
 H         4.503433        -1.753052        -2.242439
 H         5.144081        -0.234073        -1.905870
 H         5.392163        -1.544548        -0.828414
 H        -0.277429         0.737899         0.626878
 H        -0.106230         1.546308        -0.933281
 H        -0.525813        -0.131698        -0.884691
 H         2.598767         2.298731         0.103689
 H         1.959140         1.460618         1.705322
 H         4.586376         0.418733         1.193930
 H         3.116548        -1.820507         1.425798
