19
Iteration:  1162
 C         4.615224        -0.953672        -1.538120
 C         3.533764        -0.522943        -0.548906
 O         2.314605        -0.110084        -1.256297
 C         1.532622         0.296592        -0.243619
 C        -0.032564         0.489510        -0.505924
 C         2.509290         1.347603         0.600021
 C         3.660254         0.417625         0.688982
 C         2.945993        -1.017017         0.813191
 O         1.589950        -0.765479         0.766111
 H         5.357741        -1.503361        -1.051814
 H         4.301238        -1.674971        -2.358606
 H         5.067953        -0.218110        -2.148773
 H        -0.442234         0.511884         0.546266
 H        -0.411914         1.322549        -1.074141
 H        -0.389525        -0.529096        -0.962636
 H         2.944580         2.304990         0.059397
 H         1.889714         1.572230         1.585988
 H         4.520385         0.698497         1.352177
 H         3.196253        -1.914299         1.377417
