19
Iteration:  2123charge 0 multiplicity 1
 C         4.470096        -1.034033        -1.506053
 C         3.536685        -0.381197        -0.548683
 O         2.278598        -0.101945        -1.162804
 C         1.524910         0.273247        -0.126121
 C         0.129655         0.698606        -0.638390
 C         2.384190         1.321604         0.556130
 C         3.552358         0.434143         0.724372
 C         3.095920        -1.083142         0.777593
 O         1.651222        -0.956308         0.785235
 H         4.021620        -1.008602        -2.499108
 H         5.524866        -0.602294        -1.684310
 H         4.641453        -2.085070        -1.292089
 H        -0.542576         1.036608         0.176180
 H         0.475731         1.575400        -1.274948
 H        -0.388269         0.065477        -1.308500
 H         2.652594         1.937508        -0.257227
 H         2.067076         1.699477         1.463796
 H         4.422375         0.776299         1.279122
 H         3.601542        -1.968536         1.253808
