19
Iteration:  2867
 C         4.582115        -0.988942        -1.493478
 C         3.516022        -0.565136        -0.539321
 O         2.282302        -0.278332        -1.301457
 C         1.456880         0.313343        -0.158497
 C         0.027519         0.494482        -0.410784
 C         2.363288         1.400521         0.416814
 C         3.582241         0.522386         0.585901
 C         3.124440        -0.867326         0.845986
 O         1.692140        -0.869905         0.856228
 H         5.399127        -0.213052        -1.530848
 H         5.165985        -1.905729        -1.304479
 H         4.027745        -1.302618        -2.442292
 H        -0.556941         0.775228         0.467060
 H        -0.128738         1.315264        -1.109634
 H        -0.422830        -0.337457        -0.955940
 H         2.608380         2.229413        -0.371347
 H         2.112595         1.872033         1.455144
 H         4.482846         0.995639         0.978898
 H         3.572193        -1.528588         1.651537
