19
Iteration:  4065charge 0 multiplicity 1
 C         4.556432        -0.985962        -1.442715
 C         3.498515        -0.453300        -0.589807
 O         2.124310        -0.515786        -1.187427
 C         1.473324         0.168916        -0.032154
 C        -0.013181         0.238994        -0.401190
 C         2.362306         1.476967         0.116031
 C         3.657677         0.714048         0.318086
 C         3.167730        -0.667096         0.918145
 O         1.790292        -0.704579         1.118260
 H         4.322900        -1.364352        -2.463365
 H         5.428280        -0.095257        -1.634507
 H         5.137389        -1.882291        -1.061269
 H        -0.645858         0.684511         0.335244
 H        -0.125346         0.776566        -1.307267
 H        -0.201882        -0.783130        -0.688877
 H         2.276010         1.860011        -0.842870
 H         1.903432         2.208691         0.829319
 H         4.743011         0.940393         0.471646
 H         3.772945        -1.483587         1.523142
