19
Iteration:  1789charge 0 multiplicity 1
 C         4.695112        -1.071526        -1.409901
 C         3.489525        -0.493397        -0.618756
 O         2.245815        -0.118843        -1.310104
 C         1.491485         0.301887        -0.105292
 C         0.125126         0.757470        -0.468232
 C         2.333002         1.310730         0.713163
 C         3.650019         0.464413         0.634742
 C         3.015618        -1.037883         0.733313
 O         1.631359        -0.915921         0.621226
 H         4.200551        -1.727737        -2.247094
 H         5.135078        -0.236380        -1.940903
 H         5.377134        -1.781201        -0.815655
 H        -0.454054         1.020764         0.473653
 H         0.065887         1.607167        -1.296622
 H        -0.448105        -0.088685        -0.882429
 H         2.411240         2.227409         0.241245
 H         1.898390         1.276549         1.694988
 H         4.565843         0.596752         1.209312
 H         3.296141        -1.870621         1.499633
