19
Iteration:   594
 C         4.546187        -1.162368        -1.466857
 C         3.535831        -0.492340        -0.603108
 O         2.227022        -0.333731        -1.216895
 C         1.480636         0.177935        -0.083117
 C        -0.021704         0.053901        -0.310059
 C         2.321521         1.547798         0.149825
 C         3.577933         0.766700         0.414100
 C         3.207584        -0.640295         0.922311
 O         1.768883        -0.681760         0.978502
 H         4.785732        -0.464708        -2.299131
 H         5.535611        -1.217171        -1.001483
 H         4.134154        -2.052886        -1.976332
 H        -0.596841         0.246287         0.637368
 H        -0.253316         0.689750        -1.205913
 H        -0.204641        -1.017023        -0.624401
 H         2.337321         2.108548        -0.729976
 H         2.119355         2.254691         0.994414
 H         4.516318         1.299747         0.755534
 H         3.599810        -1.363122         1.668358
