19
Iteration:  1123charge 0 multiplicity 1
 C         4.605386        -0.954668        -1.500244
 C         3.488049        -0.532007        -0.596692
 O         2.225554        -0.122295        -1.177964
 C         1.447274         0.210678        -0.129295
 C         0.095913         0.631889        -0.609853
 C         2.367597         1.340405         0.531204
 C         3.625399         0.449368         0.618001
 C         3.104497        -0.999495         0.792701
 O         1.669737        -0.926284         0.869382
 H         4.750379        -2.079261        -1.387888
 H         4.355238        -0.622444        -2.528071
 H         5.504310        -0.543905        -0.954504
 H        -0.606096         0.845584         0.181449
 H         0.217721         1.595351        -1.155980
 H        -0.318363        -0.031017        -1.315931
 H         2.505706         2.076338        -0.244122
 H         2.193248         1.873045         1.424866
 H         4.442423         1.013020         1.075226
 H         3.499709        -1.864273         1.251754
