19
Iteration:  4876charge 0 multiplicity 1
 C         4.674491        -1.120805        -1.467620
 C         3.497451        -0.439169        -0.611888
 O         2.189850        -0.604380        -1.174985
 C         1.462560         0.117683        -0.083901
 C         0.001035         0.229657        -0.226120
 C         2.183330         1.402131         0.015955
 C         3.566852         0.793402         0.274588
 C         3.210061        -0.499806         0.944201
 O         1.846477        -0.642314         1.075561
 H         5.362325        -1.569376        -0.715949
 H         4.270239        -1.781001        -2.229508
 H         5.379562        -0.291977        -1.909938
 H        -0.414378         0.584898         0.744137
 H        -0.432000         0.902253        -1.010753
 H        -0.474492        -0.760387        -0.402227
 H         2.135474         1.735283        -0.974343
 H         1.844263         2.127755         0.718920
 H         4.393482         1.471600         0.192188
 H         3.889504        -1.026684         1.719650
