19
Iteration:  1779
 C         4.679664        -1.065917        -1.371388
 C         3.515963        -0.472829        -0.605148
 O         2.229651        -0.136487        -1.296404
 C         1.530480         0.310281        -0.223842
 C         0.132252         0.759207        -0.432943
 C         2.297013         1.207059         0.717120
 C         3.602820         0.389818         0.571697
 C         3.030476        -0.992149         0.693749
 O         1.615505        -0.837988         0.668137
 H         4.355459        -2.012537        -2.020038
 H         5.192324        -0.357890        -2.055632
 H         5.582225        -1.349766        -0.690732
 H        -0.304635         1.065526         0.569726
 H         0.119723         1.723143        -1.103892
 H        -0.477428        -0.047449        -0.878441
 H         2.448658         2.224701         0.613371
 H         1.986834         1.120085         1.715841
 H         4.423320         0.806106         1.139286
 H         3.363562        -1.958273         1.231154
