19
Iteration:   965charge 0 multiplicity 1
 C         4.529121        -0.945377        -1.432243
 C         3.458771        -0.498762        -0.521083
 O         2.240566        -0.219221        -1.221221
 C         1.459074         0.189480        -0.098659
 C         0.075920         0.509250        -0.507136
 C         2.412645         1.378938         0.349198
 C         3.643076         0.514592         0.564254
 C         3.120078        -0.877590         0.854757
 O         1.693824        -0.885339         0.853729
 H         5.525384        -0.566435        -1.225942
 H         4.741969        -2.014099        -1.369625
 H         4.264261        -0.722227        -2.434016
 H        -0.454207         0.702765         0.416035
 H         0.191191         1.348894        -1.192738
 H        -0.491597        -0.241029        -0.992499
 H         2.367696         1.960101        -0.620381
 H         1.836938         1.915527         1.187496
 H         4.642970         0.817146         0.828333
 H         3.721232        -1.531504         1.454729
