19
Iteration:  3243charge 0 multiplicity 1
 C         4.532345        -1.138082        -1.532531
 C         3.543329        -0.475896        -0.576381
 O         2.210113        -0.343965        -1.183347
 C         1.478866         0.181793        -0.134073
 C         0.083136         0.255643        -0.419423
 C         2.264413         1.446267         0.294325
 C         3.630063         0.679809         0.410714
 C         3.189041        -0.684692         0.910932
 O         1.787514        -0.701938         0.977766
 H         5.304847        -0.415780        -1.787624
 H         4.680855        -2.181954        -1.123921
 H         3.944172        -1.365859        -2.381319
 H        -0.512363         0.661121         0.428752
 H        -0.292410         0.956674        -1.174628
 H        -0.327120        -0.766731        -0.693308
 H         2.351826         2.299642        -0.444099
 H         1.813711         1.769563         1.311704
 H         4.548356         1.111535         0.690580
 H         3.561957        -1.262364         1.700062
