19
Iteration:   747
 C         4.510278        -1.143522        -1.384122
 C         3.494656        -0.368260        -0.591292
 O         2.174886        -0.291717        -1.226011
 C         1.481027         0.140064        -0.135978
 C         0.004302         0.323059        -0.493298
 C         2.258867         1.372536         0.327929
 C         3.669018         0.744929         0.410354
 C         3.223937        -0.734134         0.826558
 O         1.843806        -0.802157         1.039591
 H         5.429722        -1.311643        -0.763913
 H         4.220302        -2.168204        -1.748039
 H         4.733564        -0.641459        -2.343269
 H        -0.542914         0.608576         0.388248
 H        -0.326661         1.067065        -1.227310
 H        -0.375119        -0.641440        -0.759515
 H         2.296578         2.041078        -0.475956
 H         1.891458         1.871590         1.182046
 H         4.556012         1.312448         0.470178
 H         3.799180        -1.402802         1.421038
