19
Iteration:   995
 C         4.671239        -1.036385        -1.541929
 C         3.539813        -0.463508        -0.547086
 O         2.209049        -0.351169        -1.260901
 C         1.450522         0.170244        -0.136067
 C         0.073264         0.603378        -0.560057
 C         2.288150         1.362611         0.543869
 C         3.628791         0.575403         0.577079
 C         3.132079        -0.859556         0.818593
 O         1.675545        -0.835706         0.924448
 H         5.368672        -0.314731        -2.010883
 H         5.195952        -1.850401        -1.203265
 H         4.162963        -1.535037        -2.398763
 H        -0.472016         1.020613         0.316175
 H         0.205001         1.525171        -1.274597
 H        -0.611392        -0.054436        -1.086608
 H         2.179940         2.261980        -0.067552
 H         1.742158         1.539784         1.576520
 H         4.660871         0.970518         0.898281
 H         3.689189        -1.560725         1.461010
