19
Iteration:  3149charge 0 multiplicity 1
 C         4.611877        -1.025671        -1.539207
 C         3.481343        -0.545010        -0.560784
 O         2.254138        -0.418524        -1.226743
 C         1.493478         0.278188        -0.190932
 C         0.027782         0.352461        -0.352735
 C         2.328219         1.401598         0.308476
 C         3.617295         0.634368         0.428404
 C         3.118875        -0.736703         0.911727
 O         1.716552        -0.746198         0.945855
 H         4.288457        -0.647614        -2.540045
 H         5.495275        -0.676848        -1.073072
 H         4.776517        -2.104971        -1.431802
 H        -0.222537         0.832414         0.630650
 H        -0.349650         1.090496        -1.149168
 H        -0.388399        -0.644016        -0.493902
 H         2.410320         2.255884        -0.345407
 H         1.870303         1.651757         1.207994
 H         4.459806         1.174103         0.717130
 H         3.665664        -1.364048         1.586850
