19
Iteration:  2836
 C         4.564653        -0.947953        -1.515606
 C         3.492681        -0.479296        -0.603641
 O         2.218303        -0.235685        -1.180291
 C         1.500310         0.329022        -0.156854
 C         0.080027         0.389783        -0.590039
 C         2.427348         1.340619         0.482817
 C         3.651954         0.471369         0.524092
 C         3.068946        -0.912192         0.807329
 O         1.609367        -0.774479         0.989965
 H         5.096924        -0.212850        -2.163011
 H         5.305313        -1.495701        -0.969551
 H         4.359615        -1.720595        -2.344346
 H        -0.529121         0.696749         0.209400
 H         0.006384         1.272448        -1.190431
 H        -0.182464        -0.579682        -0.864609
 H         2.609754         2.235479        -0.136354
 H         2.285619         1.747866         1.490750
 H         4.586496         0.958175         0.897061
 H         3.461824        -1.787619         1.420241
