19
Iteration:   211
 C         4.571891        -1.189161        -1.399590
 C         3.552440        -0.478664        -0.631537
 O         2.228379        -0.766790        -1.147548
 C         1.448456         0.029684        -0.109400
 C        -0.077264         0.070191        -0.255041
 C         2.146850         1.439545         0.088224
 C         3.545793         0.975340         0.095429
 C         3.346436        -0.328395         0.938140
 O         1.924946        -0.522746         1.096049
 H         4.541691        -2.236559        -1.233170
 H         4.315621        -0.930335        -2.432796
 H         5.538601        -0.730561        -1.152036
 H        -0.410643         0.509728         0.671990
 H        -0.448895         0.766577        -1.068009
 H        -0.714182        -0.777940        -0.411443
 H         1.964363         2.200982        -0.718315
 H         1.766223         1.924590         1.017183
 H         4.335832         1.637141         0.378120
 H         3.937199        -0.713593         1.737826
