19
Iteration:  2449
 C         4.593830        -1.105542        -1.406648
 C         3.474860        -0.449376        -0.601517
 O         2.268078        -0.161229        -1.269632
 C         1.434409         0.233014        -0.001657
 C         0.041357         0.576251        -0.519546
 C         2.353008         1.354354         0.569648
 C         3.666125         0.540443         0.522429
 C         3.138804        -0.901453         0.766639
 O         1.663155        -0.884686         0.790842
 H         4.337099        -1.453142        -2.430958
 H         5.541476        -0.367510        -1.592786
 H         5.075957        -1.919644        -0.852045
 H        -0.647503         0.917435         0.221529
 H         0.066709         1.240054        -1.393829
 H        -0.474406        -0.228389        -0.964557
 H         2.169770         2.220965        -0.157804
 H         2.090035         1.522751         1.648578
 H         4.671310         0.946211         0.722440
 H         3.521336        -1.868341         1.184459
