19
Iteration:   815
 C         4.603111        -0.968354        -1.412331
 C         3.460616        -0.515013        -0.622724
 O         2.209791        -0.308473        -1.296902
 C         1.472987         0.275199        -0.024326
 C         0.003749         0.262878        -0.395904
 C         2.411577         1.414849         0.247893
 C         3.603476         0.599645         0.511190
 C         3.109294        -0.867013         0.780458
 O         1.727099        -0.708391         0.995251
 H         4.781762        -0.273044        -2.246162
 H         5.614609        -1.001424        -0.846990
 H         4.364297        -1.983481        -1.708823
 H        -0.532013         0.725501         0.471459
 H        -0.182810         1.040422        -1.182056
 H        -0.144123        -0.801419        -0.647136
 H         2.447195         1.912957        -0.745201
 H         2.091798         2.127621         0.895915
 H         4.624422         0.830894         0.961286
 H         3.644685        -1.486595         1.541508
