19
Iteration:   557
 C         4.619935        -1.118125        -1.438487
 C         3.454282        -0.421244        -0.607279
 O         2.172912        -0.501163        -1.179234
 C         1.463127         0.085947        -0.093445
 C         0.029512         0.183149        -0.400918
 C         2.248244         1.522255         0.222239
 C         3.570030         0.814730         0.283443
 C         3.264876        -0.634215         0.900224
 O         1.823609        -0.688288         1.073648
 H         5.426490        -0.330464        -1.538777
 H         4.813027        -2.167002        -1.064855
 H         4.231799        -1.414673        -2.502038
 H        -0.540057         0.631338         0.388594
 H        -0.156004         0.910705        -1.161035
 H        -0.402637        -0.759965        -0.691726
 H         2.108429         2.327098        -0.571995
 H         2.013344         1.821741         1.234194
 H         4.465412         1.327790         0.477621
 H         3.979867        -1.259923         1.414988
