19
Iteration:   501charge 0 multiplicity 1
 C         4.575114        -1.037896        -1.399249
 C         3.444696        -0.425543        -0.624219
 O         2.169988        -0.461570        -1.186560
 C         1.466142         0.129526        -0.053357
 C         0.034387         0.150133        -0.268898
 C         2.278598         1.442183         0.043451
 C         3.574912         0.790426         0.363766
 C         3.198999        -0.668261         0.857383
 O         1.862437        -0.665803         1.053729
 H         5.209922        -1.716670        -0.774894
 H         4.313386        -1.798763        -2.163971
 H         5.208063        -0.255746        -1.890115
 H        -0.541339         0.645510         0.467227
 H        -0.263108         0.510469        -1.256743
 H        -0.258119        -0.860529        -0.256186
 H         2.268900         1.738719        -1.079272
 H         1.914212         2.288741         0.543481
 H         4.518301         1.352544         0.618789
 H         3.918962        -1.184226         1.576403
