19
Iteration:  4081
 C         4.567522        -1.018027        -1.500683
 C         3.505189        -0.595540        -0.561185
 O         2.206814        -0.515353        -1.109336
 C         1.471431         0.157771        -0.125303
 C         0.009550         0.249537        -0.418051
 C         2.273991         1.436777         0.165272
 C         3.568093         0.709733         0.314089
 C         3.251057        -0.663637         0.936263
 O         1.796982        -0.620486         1.041221
 H         3.999072        -1.129488        -2.446071
 H         5.354730        -0.300209        -1.614877
 H         5.083801        -1.927503        -1.176282
 H        -0.388691         0.758515         0.544332
 H        -0.144957         0.967756        -1.298640
 H        -0.495359        -0.716387        -0.673653
 H         2.281992         2.352114        -0.567818
 H         1.991098         1.826877         1.136274
 H         4.416838         1.338175         0.436732
 H         3.763484        -1.076678         1.710024
