19
Iteration:   659
 C         4.640886        -1.045090        -1.408758
 C         3.519653        -0.393124        -0.604307
 O         2.129816        -0.430395        -1.140028
 C         1.457617         0.153717         0.007103
 C         0.038264         0.386848        -0.411377
 C         2.236953         1.439952         0.114467
 C         3.589668         0.686169         0.305633
 C         3.254634        -0.672399         0.829037
 O         1.788096        -0.876078         1.043064
 H         4.067321        -1.865043        -1.946090
 H         5.096203        -0.205590        -2.022235
 H         5.504830        -1.313019        -0.684470
 H        -0.590852         0.787217         0.400459
 H        -0.010171         0.889376        -1.399026
 H        -0.323932        -0.653864        -0.529339
 H         2.142944         2.030250        -0.726137
 H         1.905192         1.897980         1.076032
 H         4.464811         1.289193         0.635751
 H         3.886437        -1.384867         1.448064
