19
Iteration:  1744charge 0 multiplicity 1
 C         4.674034        -1.015182        -1.376505
 C         3.558004        -0.512354        -0.554487
 O         2.249655         0.037526        -1.264981
 C         1.468072         0.330729        -0.056739
 C         0.077482         0.667471        -0.429609
 C         2.481468         1.307041         0.538668
 C         3.559746         0.307983         0.661175
 C         2.974159        -1.083521         0.715197
 O         1.578275        -0.915302         0.610248
 H         4.648636        -2.148476        -1.431181
 H         4.527412        -0.566767        -2.362352
 H         5.635216        -0.707876        -0.887619
 H        -0.594090         0.830533         0.449020
 H         0.214647         1.645108        -1.045889
 H        -0.336777        -0.095448        -1.111924
 H         2.684085         1.937201        -0.266165
 H         2.277359         1.791501         1.485634
 H         4.451098         0.564045         1.226031
 H         3.404679        -1.982688         1.116197
