19
Iteration:  3303charge 0 multiplicity 1
 C         4.633464        -1.049997        -1.408078
 C         3.424706        -0.601609        -0.665502
 O         2.242686        -0.464736        -1.255627
 C         1.463637         0.193620        -0.115782
 C        -0.036533         0.327991        -0.310147
 C         2.282270         1.447322         0.302802
 C         3.645456         0.674585         0.325443
 C         3.193660        -0.646099         0.795079
 O         1.743885        -0.671577         1.017744
 H         5.617013        -0.617986        -1.138881
 H         4.977644        -2.044332        -1.206574
 H         4.454507        -0.857572        -2.537863
 H        -0.317362         0.664539         0.679187
 H        -0.133701         1.058262        -1.144954
 H        -0.381119        -0.667269        -0.417096
 H         2.331076         2.337246        -0.238168
 H         1.905442         1.668153         1.254049
 H         4.651653         1.069076         0.573283
 H         3.508971        -1.334029         1.570405
