19
Iteration:  2566charge 0 multiplicity 1
 C         4.526132        -0.978528        -1.554019
 C         3.475521        -0.531295        -0.565354
 O         2.254783        -0.256669        -1.231983
 C         1.527408         0.259031        -0.101632
 C         0.087103         0.551306        -0.592455
 C         2.358745         1.390667         0.488018
 C         3.645981         0.574485         0.598349
 C         3.086379        -0.827672         0.876084
 O         1.677792        -0.946702         0.918954
 H         5.096710        -0.183707        -2.058203
 H         5.321121        -1.530601        -1.106937
 H         4.189947        -1.763431        -2.223159
 H        -0.462742         0.751137         0.359380
 H         0.066145         1.347035        -1.445776
 H        -0.430711        -0.301431        -1.093800
 H         2.197753         2.129314        -0.339410
 H         1.949500         1.558976         1.502896
 H         4.662580         0.837985         0.877825
 H         3.682071        -1.603175         1.430167
