19
Iteration:  1601
 C         4.629953        -0.963657        -1.398102
 C         3.515816        -0.558367        -0.584162
 O         2.322945         0.040609        -1.286210
 C         1.543428         0.377670        -0.121863
 C         0.086356         0.692439        -0.549921
 C         2.516201         1.316087         0.612433
 C         3.606281         0.245331         0.751287
 C         2.887496        -1.097541         0.709314
 O         1.501202        -0.914550         0.698292
 H         5.691494        -0.865035        -0.956846
 H         4.535849        -2.075489        -1.778212
 H         4.636717        -0.267276        -2.291443
 H        -0.506416         0.955553         0.361360
 H         0.068605         1.460552        -1.317303
 H        -0.374596        -0.326394        -0.866363
 H         2.892389         2.145751         0.131185
 H         2.279707         1.634305         1.618072
 H         4.608044         0.546049         1.057342
 H         3.229120        -2.118451         1.091331
