19
Iteration:  1860
 C         4.627789        -0.992051        -1.519165
 C         3.536333        -0.534587        -0.554006
 O         2.256843        -0.069757        -1.266075
 C         1.513177         0.299101        -0.146880
 C         0.086119         0.595113        -0.594643
 C         2.468848         1.300356         0.742904
 C         3.714187         0.382873         0.586271
 C         2.941080        -0.978740         0.781409
 O         1.539469        -0.829260         0.759428
 H         4.296118        -1.072066        -2.529841
 H         5.541467        -0.294938        -1.520861
 H         4.891322        -2.002119        -1.241379
 H        -0.542513         0.790175         0.255625
 H        -0.016038         1.387055        -1.262984
 H        -0.406104        -0.248255        -1.067980
 H         2.383534         2.325687         0.248588
 H         2.141045         1.130799         1.795960
 H         4.687134         0.469479         1.046405
 H         3.311309        -1.714380         1.502388
