19
Iteration:  2722charge 0 multiplicity 1
 C         4.572648        -1.000152        -1.483044
 C         3.430450        -0.536261        -0.601848
 O         2.246376        -0.193686        -1.245508
 C         1.456158         0.303399        -0.084022
 C         0.071042         0.418682        -0.548120
 C         2.460096         1.380451         0.490106
 C         3.635129         0.452654         0.641909
 C         3.081641        -0.914908         0.779996
 O         1.658170        -0.774435         0.859377
 H         4.464937        -0.583953        -2.502816
 H         5.563120        -0.480433        -1.244300
 H         4.718863        -2.049225        -1.320004
 H        -0.705181         0.493032         0.203566
 H        -0.152219         1.313987        -1.099528
 H        -0.161593        -0.522485        -1.039198
 H         2.664221         2.257745        -0.246892
 H         2.271139         1.899146         1.500298
 H         4.628332         0.962007         0.867937
 H         3.426913        -1.800421         1.396331
