19
Iteration:   930
 C         4.662807        -1.091862        -1.454199
 C         3.517744        -0.531318        -0.656132
 O         2.233826        -0.210494        -1.236634
 C         1.543797         0.328584        -0.180116
 C        -0.012997         0.293906        -0.427594
 C         2.374041         1.417401         0.444177
 C         3.602180         0.499582         0.540763
 C         3.080015        -0.871351         0.776045
 O         1.661322        -0.660944         0.875440
 H         5.341574        -1.440395        -0.710397
 H         4.266030        -1.714743        -2.135732
 H         5.141686        -0.243221        -1.915615
 H        -0.346012         0.591352         0.554856
 H        -0.533766         1.079520        -1.057204
 H        -0.194522        -0.742468        -0.669806
 H         2.485937         2.374064        -0.090204
 H         1.696707         1.670953         1.403431
 H         4.657382         0.588249         1.006750
 H         3.632673        -1.506481         1.545119
