19
Iteration:  1825
 C         4.508254        -0.963123        -1.509988
 C         3.545826        -0.478471        -0.498419
 O         2.294424         0.052248        -1.280248
 C         1.561198         0.335062        -0.108212
 C         0.104547         0.533125        -0.596256
 C         2.481174         1.296511         0.551317
 C         3.643658         0.316712         0.793462
 C         2.948049        -1.128288         0.750843
 O         1.603980        -0.824582         0.763633
 H         3.837334        -1.048739        -2.445558
 H         5.465329        -0.327134        -1.715286
 H         4.973637        -1.960595        -1.268866
 H        -0.484964         0.842207         0.295597
 H        -0.005048         1.298253        -1.333287
 H        -0.192430        -0.522286        -0.887751
 H         2.480497         2.120981        -0.190424
 H         1.926969         1.820405         1.286922
 H         4.612884         0.439157         1.332815
 H         3.182479        -1.988732         1.274987
