19
Iteration:  1295
 C         4.638467        -0.945891        -1.526393
 C         3.480631        -0.489294        -0.608319
 O         2.293158        -0.062118        -1.258729
 C         1.523317         0.419373        -0.119050
 C         0.119587         0.548693        -0.608299
 C         2.514925         1.279025         0.632625
 C         3.623284         0.265762         0.678496
 C         2.911721        -1.055067         0.752307
 O         1.528578        -0.815664         0.850307
 H         4.407200        -0.744364        -2.524558
 H         5.552963        -0.405105        -1.229693
 H         4.752694        -2.024871        -1.428048
 H        -0.591607         0.477070         0.233402
 H        -0.032178         1.543770        -1.173737
 H        -0.190940        -0.299324        -1.196943
 H         2.751535         2.206053        -0.012832
 H         2.221960         1.593791         1.697961
 H         4.495428         0.615835         1.192057
 H         3.417513        -1.939082         1.235497
