19
Iteration:  2078
 C         4.614586        -0.996624        -1.375430
 C         3.478418        -0.527691        -0.603449
 O         2.285678        -0.120941        -1.293349
 C         1.514019         0.362263        -0.205125
 C         0.082643         0.624666        -0.462618
 C         2.455444         1.329812         0.612210
 C         3.660482         0.308137         0.631454
 C         2.983912        -1.006529         0.747411
 O         1.563321        -0.796771         0.706182
 H         4.275639        -1.442123        -2.282482
 H         5.425615        -0.182570        -1.608582
 H         5.166695        -1.726451        -0.811376
 H        -0.366692         0.653454         0.549609
 H        -0.316914         1.467183        -1.154762
 H        -0.359403        -0.354003        -0.818392
 H         2.805507         2.254813         0.169864
 H         2.061350         1.289832         1.577646
 H         4.717101         0.591061         0.865654
 H         3.210177        -1.744816         1.438146
