19
Iteration:  3444
 C         4.641399        -1.092908        -1.431256
 C         3.510727        -0.472832        -0.575358
 O         2.194319        -0.488900        -1.219049
 C         1.459059         0.123666        -0.073274
 C        -0.016959         0.380826        -0.256221
 C         2.206094         1.422052         0.129623
 C         3.622367         0.716969         0.364854
 C         3.238998        -0.633096         0.848076
 O         1.790528        -0.753594         0.962239
 H         5.299109        -1.815402        -0.917843
 H         4.124592        -1.878189        -2.026615
 H         5.193307        -0.183036        -1.869728
 H        -0.433104         0.861199         0.613075
 H         0.012018         1.130784        -1.056231
 H        -0.572972        -0.471330        -0.514633
 H         2.195360         2.067815        -0.733779
 H         1.965113         2.041950         0.959606
 H         4.555973         1.254753         0.629079
 H         3.646411        -1.225060         1.626279
