19
Iteration:   453
 C         4.521959        -1.114797        -1.422486
 C         3.511378        -0.461619        -0.632433
 O         2.211054        -0.520343        -1.180031
 C         1.473083         0.167312        -0.128697
 C         0.078867         0.069748        -0.337954
 C         2.188324         1.426879         0.160120
 C         3.580354         0.776528         0.220625
 C         3.299587        -0.555140         0.905040
 O         1.820086        -0.539533         1.099693
 H         4.334937        -2.190224        -1.397531
 H         4.424345        -0.947456        -2.478592
 H         5.521263        -0.875420        -1.155684
 H        -0.563413         0.548603         0.487347
 H        -0.258994         0.541916        -1.289886
 H        -0.359161        -0.987794        -0.383384
 H         2.093407         2.354339        -0.394800
 H         1.929050         1.742083         1.270139
 H         4.408543         1.368832         0.479252
 H         3.817918        -1.052355         1.657573
