19
Iteration:  2656
 C         4.634722        -1.043276        -1.421260
 C         3.525158        -0.416528        -0.641197
 O         2.206994        -0.180859        -1.256664
 C         1.456190         0.208840        -0.108613
 C        -0.013949         0.514571        -0.489134
 C         2.385220         1.376377         0.430488
 C         3.590388         0.518252         0.579618
 C         3.111160        -0.911741         0.772766
 O         1.712509        -0.905806         0.882292
 H         5.273342        -0.321448        -1.828586
 H         5.284897        -1.594358        -0.677392
 H         4.135995        -1.748310        -1.969149
 H        -0.348028         0.946638         0.430592
 H         0.165747         1.345339        -1.152963
 H        -0.587590        -0.279040        -0.874957
 H         2.421027         2.179970        -0.396293
 H         2.078507         1.793596         1.453133
 H         4.546117         0.977702         0.914154
 H         3.728847        -1.628584         1.291844
