19
Iteration:  4449
 C         4.561894        -1.248212        -1.287508
 C         3.510866        -0.432702        -0.696059
 O         2.162200        -0.401875        -1.196883
 C         1.415610         0.168084        -0.007071
 C        -0.091950         0.068566        -0.250591
 C         2.220554         1.454983         0.081109
 C         3.613255         0.879832         0.212377
 C         3.329083        -0.519709         0.768461
 O         1.919271        -0.684616         1.082590
 H         4.220297        -1.963292        -2.026801
 H         5.375299        -0.661751        -1.695090
 H         4.975853        -1.898119        -0.614159
 H        -0.865025         0.459472         0.479767
 H        -0.217460         0.584158        -1.252278
 H        -0.237323        -1.015319        -0.277240
 H         1.979155         2.030238        -0.806533
 H         1.954265         2.122298         0.968460
 H         4.535798         1.452121         0.368009
 H         3.951085        -0.922800         1.515997
