19
Iteration:  1852charge 0 multiplicity 1
 C         4.599651        -0.999325        -1.556098
 C         3.496984        -0.516640        -0.596456
 O         2.306624        -0.092852        -1.225519
 C         1.532494         0.320497        -0.116873
 C         0.086165         0.520547        -0.643256
 C         2.557756         1.313234         0.758857
 C         3.633431         0.376320         0.583481
 C         2.945292        -0.960678         0.829253
 O         1.526574        -0.795996         0.723393
 H         4.269368        -1.003440        -2.555841
 H         5.389335        -0.328749        -1.499640
 H         5.050484        -1.951963        -1.374265
 H        -0.325354         0.742573         0.334604
 H        -0.155467         1.429386        -1.276832
 H        -0.366609        -0.372716        -0.944200
 H         2.609912         2.414048         0.481990
 H         1.986284         1.332617         1.774126
 H         4.474660         0.502031         1.228135
 H         3.195261        -1.937998         1.426745
