19
Iteration:  1807
 C         4.542538        -1.014792        -1.482688
 C         3.489451        -0.447589        -0.566904
 O         2.398102        -0.003860        -1.235285
 C         1.489556         0.241750        -0.105142
 C         0.088914         0.635165        -0.507576
 C         2.437403         1.315004         0.583219
 C         3.592815         0.343027         0.704944
 C         3.012528        -0.984812         0.723106
 O         1.538641        -0.962409         0.723044
 H         4.192371        -1.407738        -2.365213
 H         5.359483        -0.331390        -1.697779
 H         5.037899        -1.807108        -0.983839
 H        -0.519522         1.057156         0.260752
 H         0.275543         1.380563        -1.260837
 H        -0.505029        -0.126294        -0.974697
 H         2.767818         2.182150        -0.136740
 H         2.260433         1.836378         1.600051
 H         4.497413         0.739249         1.126080
 H         3.484023        -1.870969         1.114552
