19
Iteration:   962
 C         4.546715        -0.968261        -1.425630
 C         3.475698        -0.498436        -0.535113
 O         2.231609        -0.209576        -1.251597
 C         1.474263         0.165470        -0.082635
 C         0.048053         0.477094        -0.497247
 C         2.432485         1.386494         0.360964
 C         3.662072         0.537822         0.553031
 C         3.106989        -0.896892         0.871067
 O         1.667993        -0.854312         0.843178
 H         5.521072        -0.555559        -1.144102
 H         4.670575        -1.975141        -1.414952
 H         4.211788        -0.545749        -2.403632
 H        -0.455697         0.720589         0.450900
 H         0.183071         1.394202        -1.178775
 H        -0.473696        -0.358626        -0.996439
 H         2.405487         1.953890        -0.562514
 H         1.853951         1.962245         1.181891
 H         4.738948         0.846413         0.823158
 H         3.675466        -1.617503         1.524261
