19
Iteration:   876charge 0 multiplicity 1
 C         4.559503        -1.181645        -1.508538
 C         3.532688        -0.446767        -0.593903
 O         2.213449        -0.269864        -1.237094
 C         1.497728         0.183225        -0.077057
 C         0.068886         0.434601        -0.458488
 C         2.266368         1.411270         0.393414
 C         3.527232         0.694719         0.565083
 C         3.170862        -0.753618         0.845464
 O         1.813547        -0.864112         0.882035
 H         4.137093        -2.187035        -1.790370
 H         4.842768        -0.575468        -2.331641
 H         5.478084        -1.432069        -0.964852
 H        -0.508120         0.875119         0.337386
 H         0.154303         1.192624        -1.270723
 H        -0.594792        -0.291216        -0.865581
 H         2.268690         2.159403        -0.413926
 H         1.796196         1.828689         1.398078
 H         4.460321         1.252332         0.873311
 H         3.740032        -1.535378         1.396094
