19
Iteration:  4444charge 0 multiplicity 1
 C         4.592014        -1.234974        -1.300466
 C         3.483973        -0.433370        -0.709286
 O         2.157185        -0.422783        -1.193782
 C         1.407993         0.178010         0.015217
 C        -0.068255         0.070008        -0.263635
 C         2.227936         1.478352         0.102177
 C         3.588811         0.811997         0.214157
 C         3.312964        -0.483398         0.771399
 O         1.952174        -0.692986         1.075217
 H         4.031830        -1.867586        -2.063321
 H         5.427731        -0.612887        -1.758873
 H         4.933374        -1.804117        -0.300234
 H        -0.839470         0.434609         0.399541
 H        -0.277292         0.583202        -1.203223
 H        -0.451154        -1.000605        -0.320568
 H         2.144950         2.093907        -0.832622
 H         1.887400         2.195372         0.817332
 H         4.507909         1.359891         0.353172
 H         4.029346        -0.918115         1.531360
