19
Iteration:    10charge 0 multiplicity 1
 C         4.520542        -1.086284        -1.474820
 C         3.484241        -0.387108        -0.598692
 O         2.111219        -0.617720        -1.130504
 C         1.488285         0.052830         0.001448
 C         0.064025        -0.110064        -0.159096
 C         2.168400         1.412610        -0.168642
 C         3.578367         0.965864         0.167985
 C         3.325742        -0.360864         0.902961
 O         1.911252        -0.537624         1.204883
 H         5.520487        -0.935691        -1.105655
 H         4.341510        -2.093277        -1.256105
 H         4.538115        -0.963719        -2.519935
 H        -0.358119         0.346335         0.742737
 H        -0.385565         0.334890        -1.092958
 H        -0.107826        -1.187587        -0.087617
 H         2.054411         1.721565        -1.217683
 H         1.662386         2.215494         0.477880
 H         4.525542         1.394712        -0.090208
 H         3.979949        -0.936748         1.597152
