19
Iteration:  3413charge 0 multiplicity 1
 C         4.540264        -1.103534        -1.453234
 C         3.462769        -0.490289        -0.597550
 O         2.167915        -0.397504        -1.204928
 C         1.425127         0.221883        -0.100209
 C         0.015015         0.230123        -0.383667
 C         2.298484         1.456785         0.186862
 C         3.662273         0.707059         0.384493
 C         3.266352        -0.694948         0.885228
 O         1.820194        -0.703792         1.074766
 H         5.017147        -1.833585        -0.751740
 H         4.002931        -1.401655        -2.364564
 H         5.259944        -0.269533        -1.884321
 H        -0.644924         0.484190         0.412029
 H        -0.154441         0.815278        -1.304123
 H        -0.441552        -0.709257        -0.687557
 H         2.333466         2.007732        -0.708918
 H         2.064752         2.102087         1.028869
 H         4.676338         1.147447         0.381021
 H         3.717907        -1.399184         1.585344
