19
Iteration:  3105
 C         4.536870        -1.107879        -1.512901
 C         3.457282        -0.524432        -0.645902
 O         2.183035        -0.293083        -1.183196
 C         1.479424         0.228834        -0.020540
 C         0.047444         0.354775        -0.491223
 C         2.301593         1.417290         0.365909
 C         3.653430         0.691118         0.542486
 C         3.205943        -0.751023         0.801792
 O         1.753613        -0.773637         0.961385
 H         4.103375        -1.484462        -2.511490
 H         5.444447        -0.513700        -1.629904
 H         5.065131        -1.907428        -0.978170
 H        -0.642274         0.551150         0.348031
 H         0.087816         0.961099        -1.481184
 H        -0.032907        -0.661279        -0.990584
 H         2.201864         2.126209        -0.454090
 H         2.038242         1.867014         1.278780
 H         4.630548         1.104570         0.756401
 H         3.612725        -1.429302         1.420545
