19
Iteration:  2435charge 0 multiplicity 1
 C         4.551016        -1.001202        -1.401491
 C         3.494217        -0.418190        -0.619465
 O         2.219793        -0.196200        -1.213951
 C         1.485861         0.248830        -0.033750
 C         0.125142         0.538112        -0.577507
 C         2.390907         1.349606         0.528716
 C         3.617083         0.561385         0.539588
 C         3.067454        -1.013833         0.692407
 O         1.665358        -0.903414         0.873265
 H         3.861923        -1.536886        -2.141492
 H         5.242963        -0.158092        -1.873393
 H         5.059210        -1.881956        -0.922265
 H        -0.533084         1.016053         0.148253
 H         0.449599         1.289869        -1.301417
 H        -0.172527        -0.401534        -1.061608
 H         2.627916         2.268965        -0.143173
 H         2.071120         1.864976         1.496713
 H         4.494649         0.867805         1.112735
 H         3.632494        -1.669173         1.271838
