19
Iteration:  1080
 C         4.623883        -1.100369        -1.431384
 C         3.493109        -0.488158        -0.602288
 O         2.314508        -0.140058        -1.262120
 C         1.556676         0.243507        -0.165764
 C         0.079350         0.484389        -0.435917
 C         2.314796         1.367368         0.565148
 C         3.592310         0.548493         0.558539
 C         3.017575        -0.900626         0.846364
 O         1.639767        -0.837149         0.709177
 H         4.242907        -1.545845        -2.418377
 H         5.151182        -0.192605        -1.705588
 H         5.167607        -1.922400        -0.863170
 H        -0.223854         0.786322         0.559973
 H        -0.048911         1.377923        -1.099736
 H        -0.593689        -0.309628        -0.676447
 H         2.454248         2.271051         0.122699
 H         1.917353         1.430871         1.495759
 H         4.653416         0.810408         0.774542
 H         3.560024        -1.677077         1.308654
