19
Iteration:   689charge 0 multiplicity 1
 C         4.562741        -1.015120        -1.476056
 C         3.541203        -0.541171        -0.604443
 O         2.261739        -0.423544        -1.266969
 C         1.485009         0.146837        -0.187162
 C        -0.074298         0.238303        -0.359433
 C         2.299935         1.482898         0.225933
 C         3.606061         0.626838         0.429937
 C         3.184187        -0.682892         0.930136
 O         1.757089        -0.631219         1.006708
 H         4.749489        -2.124107        -1.519172
 H         4.153164        -0.676353        -2.440383
 H         5.589966        -0.600084        -1.080742
 H        -0.256795         0.665635         0.624732
 H        -0.386863         0.748616        -1.215663
 H        -0.448602        -0.811251        -0.272159
 H         2.448745         2.416041        -0.367026
 H         1.844212         1.770885         1.262621
 H         4.658157         0.958462         0.680961
 H         3.772322        -1.292346         1.657210
