19
Iteration:  4253charge 0 multiplicity 1
 C         4.508475        -1.061313        -1.434770
 C         3.501481        -0.519254        -0.609938
 O         2.171939        -0.535361        -1.170704
 C         1.498935         0.165571        -0.158332
 C        -0.027796         0.128258        -0.329949
 C         2.325113         1.420975         0.137176
 C         3.645547         0.752108         0.216781
 C         3.277204        -0.574883         0.942149
 O         1.783177        -0.550207         1.096276
 H         5.520994        -1.133161        -0.969000
 H         4.484473        -2.158727        -1.770876
 H         4.499998        -0.386236        -2.310164
 H        -0.518578         0.518238         0.546744
 H        -0.358554         0.678505        -1.213120
 H        -0.332268        -0.870459        -0.514092
 H         2.156008         2.357970        -0.352229
 H         1.870824         1.659527         1.156339
 H         4.456058         1.427260         0.446799
 H         3.877154        -1.212968         1.693320
