19
Iteration:  1093charge 0 multiplicity 1
 C         4.579295        -1.011639        -1.431457
 C         3.504282        -0.479217        -0.584825
 O         2.250910        -0.232151        -1.291995
 C         1.485747         0.234604        -0.160933
 C         0.122436         0.618208        -0.466230
 C         2.319869         1.295555         0.578895
 C         3.612443         0.530976         0.576767
 C         3.124956        -0.896570         0.765712
 O         1.660865        -0.876684         0.772251
 H         4.166238        -1.844398        -2.092912
 H         5.191857        -0.367244        -2.003646
 H         5.288481        -1.507309        -0.718585
 H        -0.441360         0.971483         0.411674
 H         0.149813         1.478991        -1.217382
 H        -0.313875        -0.234952        -0.979538
 H         2.252487         2.215626         0.073843
 H         1.969263         1.442163         1.582757
 H         4.384826         0.981974         1.144364
 H         3.457204        -1.654182         1.447252
