19
Iteration:   983charge 0 multiplicity 1
 C         4.613502        -1.033840        -1.527371
 C         3.548653        -0.458343        -0.617558
 O         2.219834        -0.345039        -1.218772
 C         1.492041         0.217152        -0.142862
 C         0.076456         0.649977        -0.543627
 C         2.303296         1.388339         0.434118
 C         3.527888         0.602629         0.579123
 C         3.126168        -0.911307         0.848245
 O         1.727262        -0.943423         0.953433
 H         5.397556        -0.246710        -1.566466
 H         5.003729        -1.940776        -1.098510
 H         4.093583        -1.083598        -2.532311
 H        -0.502506         0.962624         0.350832
 H         0.221210         1.551706        -1.264796
 H        -0.353604        -0.241919        -1.049298
 H         2.490080         2.195707        -0.242654
 H         1.866232         1.783869         1.423294
 H         4.434483         1.134694         1.075846
 H         3.620658        -1.720766         1.467170
