19
Iteration:  2819
 C         4.561900        -1.024295        -1.494918
 C         3.462663        -0.522692        -0.580633
 O         2.224865        -0.155742        -1.257231
 C         1.439797         0.263109        -0.037470
 C         0.058770         0.448275        -0.563558
 C         2.429324         1.450444         0.466468
 C         3.648459         0.455982         0.588359
 C         3.090042        -0.921042         0.790085
 O         1.717125        -0.825904         0.918684
 H         4.859437        -0.180076        -2.190009
 H         5.604646        -1.106390        -1.009307
 H         4.326053        -2.031009        -1.780809
 H        -0.816012         0.778711         0.109727
 H        -0.101189         1.178515        -1.453718
 H        -0.297201        -0.571298        -1.001787
 H         2.504630         2.217990        -0.333546
 H         1.967501         1.870216         1.380153
 H         4.704618         0.670380         0.941755
 H         3.564824        -1.670091         1.415090
