19
Iteration:   236
 C         4.685627        -1.134353        -1.345313
 C         3.509787        -0.534054        -0.609077
 O         2.162055        -0.524886        -1.143391
 C         1.437427         0.183026        -0.185862
 C         0.000201        -0.036719        -0.111023
 C         2.166233         1.502952        -0.107657
 C         3.538435         0.813935         0.096350
 C         3.238190        -0.482763         0.922849
 O         1.876871        -0.547676         1.120438
 H         5.119994        -1.982742        -0.706494
 H         4.331052        -1.524675        -2.349053
 H         5.465296        -0.322126        -1.489965
 H        -0.284844         0.429750         0.844392
 H        -0.617264         0.411256        -0.895287
 H        -0.333631        -1.083349        -0.086050
 H         2.096772         2.192100        -0.931085
 H         1.959008         2.157545         0.810246
 H         4.489927         1.332330         0.294779
 H         3.923294        -0.943299         1.630696
