19
Iteration:  3504
 C         4.499957        -1.125523        -1.445013
 C         3.477274        -0.480464        -0.636979
 O         2.212283        -0.314113        -1.195544
 C         1.419105         0.254751         0.009208
 C         0.005926         0.170522        -0.418173
 C         2.341116         1.513750         0.184571
 C         3.623204         0.655873         0.428032
 C         3.204983        -0.701521         0.855430
 O         1.809864        -0.718725         1.035524
 H         5.471961        -0.743695        -1.118819
 H         4.397220        -2.185020        -1.281633
 H         4.503945        -1.141389        -2.468635
 H        -0.771372         0.576411         0.332244
 H         0.030599         0.753649        -1.350149
 H        -0.239801        -0.935022        -0.706284
 H         2.528417         2.041787        -0.772138
 H         2.194683         2.228591         1.010997
 H         4.589500         1.080298         0.482369
 H         3.762451        -1.345795         1.394842
