19
Iteration:  4229charge 0 multiplicity 1
 C         4.589240        -1.036310        -1.508265
 C         3.495156        -0.535483        -0.633086
 O         2.147866        -0.577621        -1.121255
 C         1.471513         0.151047        -0.040388
 C        -0.004287         0.228840        -0.423401
 C         2.254541         1.480044         0.158218
 C         3.586183         0.726390         0.272044
 C         3.288433        -0.588123         0.951096
 O         1.824860        -0.642659         1.132822
 H         5.588492        -0.588863        -1.405043
 H         4.899900        -2.115800        -1.515232
 H         4.215103        -0.779093        -2.459441
 H        -0.510330         0.698954         0.440423
 H        -0.126645         0.901511        -1.286761
 H        -0.480593        -0.757360        -0.689580
 H         2.184567         1.982897        -0.797887
 H         1.815414         2.270370         0.892561
 H         4.564794         1.179722         0.365663
 H         3.799983        -1.143739         1.647832
