19
Iteration:   938
 C         4.674292        -1.018439        -1.473181
 C         3.506180        -0.527514        -0.610591
 O         2.283989        -0.245968        -1.240292
 C         1.483571         0.360687        -0.157852
 C        -0.018204         0.341528        -0.419754
 C         2.428640         1.422519         0.418962
 C         3.602591         0.469722         0.528104
 C         3.017571        -0.859722         0.801212
 O         1.646512        -0.716802         0.887002
 H         5.514453        -1.320051        -0.818371
 H         4.344283        -2.021920        -1.877330
 H         4.961403        -0.226362        -2.256794
 H        -0.448701         0.462070         0.618334
 H        -0.377288         1.076373        -1.182213
 H        -0.198494        -0.758389        -0.711230
 H         2.493361         2.297591        -0.194653
 H         1.992545         1.648133         1.393657
 H         4.555123         0.806557         0.940601
 H         3.619072        -1.571415         1.369961
