19
Iteration:  3364charge 0 multiplicity 1
 C         4.495227        -1.178059        -1.472330
 C         3.495502        -0.485495        -0.585912
 O         2.219535        -0.324095        -1.209120
 C         1.448570         0.205288        -0.072836
 C         0.022781         0.160037        -0.364202
 C         2.303461         1.451335         0.209163
 C         3.658733         0.714154         0.398290
 C         3.215291        -0.651207         0.885219
 O         1.823524        -0.680074         0.984849
 H         5.207540        -1.734697        -0.859989
 H         3.772769        -1.597807        -2.187581
 H         4.967342        -0.463035        -2.087782
 H        -0.667781         0.584692         0.447762
 H        -0.264785         0.709534        -1.257277
 H        -0.413758        -0.820785        -0.632441
 H         2.453773         2.188817        -0.665329
 H         1.998244         1.976581         1.163463
 H         4.568023         1.277163         0.720140
 H         3.704007        -1.395709         1.659636
