19
Iteration:   245charge 0 multiplicity 1
 C         4.647537        -1.112229        -1.289550
 C         3.464642        -0.500668        -0.629026
 O         2.111826        -0.501808        -1.216605
 C         1.459370         0.132515        -0.082177
 C        -0.083049        -0.079065        -0.135298
 C         2.305489         1.554925        -0.126777
 C         3.574071         0.812121         0.146705
 C         3.268809        -0.505422         0.882191
 O         1.892364        -0.552853         1.138030
 H         5.234798        -1.790789        -0.657802
 H         4.390063        -1.634955        -2.236744
 H         5.287322        -0.252241        -1.599755
 H        -0.456889         0.382915         0.771761
 H        -0.606430         0.451187        -0.976707
 H        -0.207926        -1.147186         0.007802
 H         2.255355         1.765166        -1.198549
 H         1.786273         2.277065         0.577463
 H         4.400533         1.413103         0.466500
 H         3.891382        -0.964289         1.590387
