19
Iteration:  4557
 C         4.614875        -1.042556        -1.448806
 C         3.516582        -0.461565        -0.603941
 O         2.207053        -0.651060        -1.123893
 C         1.461623         0.110783        -0.135284
 C        -0.074115         0.198490        -0.288091
 C         2.256453         1.502133         0.090859
 C         3.572671         0.753563         0.190528
 C         3.299875        -0.596350         0.894242
 O         1.817049        -0.590264         1.108299
 H         4.520545        -2.181120        -1.578630
 H         4.533596        -0.731638        -2.591420
 H         5.507128        -0.676169        -0.997398
 H        -0.377074         0.710651         0.705486
 H        -0.434853         0.743065        -1.223249
 H        -0.554221        -0.799007        -0.394509
 H         2.178267         2.236349        -0.647795
 H         1.843242         1.876456         1.036413
 H         4.568904         1.295627         0.314112
 H         3.740686        -0.945490         1.914791
