19
Iteration:  3885
 C         4.629552        -1.073383        -1.316214
 C         3.457125        -0.465752        -0.637584
 O         2.101944        -0.367243        -1.175997
 C         1.467964         0.118832        -0.059922
 C        -0.029902         0.409255        -0.412161
 C         2.301650         1.478480         0.206327
 C         3.621273         0.691216         0.321296
 C         3.249404        -0.765026         0.815843
 O         1.812524        -0.820076         0.993860
 H         5.577770        -0.546560        -0.924982
 H         4.798007        -2.215436        -1.173601
 H         4.585321        -0.766193        -2.408831
 H        -0.638535         0.684273         0.483556
 H         0.039819         1.022242        -1.282161
 H        -0.534964        -0.543046        -0.508212
 H         2.269957         2.172643        -0.726164
 H         2.011477         2.027525         1.120223
 H         4.592841         1.169639         0.643197
 H         3.979671        -1.489041         1.359719
