19
Iteration:  2269charge 0 multiplicity 1
 C         4.505992        -1.017389        -1.501877
 C         3.458591        -0.523930        -0.598598
 O         2.319874        -0.084985        -1.183895
 C         1.500193         0.292713        -0.036400
 C         0.115248         0.496762        -0.595730
 C         2.454229         1.392116         0.553595
 C         3.610532         0.388267         0.674611
 C         2.993578        -0.984244         0.793954
 O         1.623423        -0.837227         0.755633
 H         5.402756        -0.391124        -1.235325
 H         4.544667        -2.059151        -1.743382
 H         4.462827        -0.586335        -2.579420
 H        -0.607257         0.857771         0.111451
 H         0.292460         1.235616        -1.274341
 H        -0.074982        -0.430978        -1.132637
 H         2.633722         2.181399        -0.154879
 H         2.248087         1.912348         1.495230
 H         4.598411         0.516666         1.169548
 H         3.422565        -1.765709         1.400913
