19
Iteration:  4828
 C         4.639951        -1.024171        -1.474899
 C         3.416829        -0.524307        -0.592777
 O         2.123173        -0.544023        -1.112120
 C         1.464961         0.121691        -0.039044
 C         0.007001         0.136191        -0.349573
 C         2.297479         1.465173         0.028068
 C         3.595055         0.725745         0.245693
 C         3.325123        -0.543698         0.889987
 O         1.788890        -0.596535         1.153912
 H         5.457443        -0.806411        -0.793502
 H         4.490885        -2.097030        -1.785360
 H         4.848267        -0.484554        -2.351061
 H        -0.637935         0.429029         0.454367
 H        -0.266666         0.783153        -1.171971
 H        -0.336011        -0.854882        -0.595910
 H         2.328252         2.044491        -1.021413
 H         1.929662         2.161254         0.933507
 H         4.555624         1.258930         0.348561
 H         3.762142        -1.219321         1.514960
