19
Iteration:  4842
 C         4.626903        -0.962606        -1.390969
 C         3.510752        -0.554931        -0.596751
 O         2.153690        -0.666827        -1.119203
 C         1.452416         0.189902        -0.058975
 C        -0.062524         0.211395        -0.317825
 C         2.239617         1.430432         0.063622
 C         3.596249         0.776801         0.164937
 C         3.207287        -0.675810         0.898531
 O         1.871642        -0.554174         1.095969
 H         5.557879        -1.156691        -0.821461
 H         4.497856        -1.909111        -1.989619
 H         4.788318        -0.139567        -2.177136
 H        -0.512603         0.512981         0.608402
 H        -0.175456         0.951287        -1.087270
 H        -0.251908        -0.854421        -0.542413
 H         2.075456         2.023507        -0.812643
 H         1.936123         2.108742         0.859206
 H         4.608043         1.353454         0.098232
 H         3.903668        -1.096399         1.772294
