19
Iteration:  2045charge 0 multiplicity 1
 C         4.685790        -1.023321        -1.332607
 C         3.478089        -0.462549        -0.659281
 O         2.267214         0.061295        -1.267117
 C         1.468306         0.267068        -0.026054
 C         0.069329         0.629071        -0.458986
 C         2.450604         1.297568         0.489801
 C         3.602246         0.278661         0.645053
 C         3.005477        -1.068424         0.690745
 O         1.550148        -0.859394         0.722758
 H         4.546388        -2.037685        -1.664098
 H         5.035864        -0.447253        -2.317213
 H         5.461036        -1.151740        -0.585552
 H        -0.469294         0.995654         0.432306
 H         0.112088         1.475561        -1.249056
 H        -0.289527        -0.306745        -0.988573
 H         2.784461         2.088211        -0.206857
 H         2.435946         1.761253         1.438103
 H         4.657299         0.468368         0.963043
 H         3.200468        -1.841153         1.373490
