19
Iteration:  3470
 C         4.635743        -1.095705        -1.427889
 C         3.469406        -0.522089        -0.589637
 O         2.211907        -0.446433        -1.240256
 C         1.493300         0.194375        -0.237132
 C        -0.050404         0.289267        -0.265572
 C         2.299376         1.442088         0.202154
 C         3.608462         0.658214         0.309073
 C         3.175721        -0.647165         0.842018
 O         1.771206        -0.657160         1.045049
 H         5.537021        -1.313564        -0.763701
 H         4.435815        -2.127287        -1.654909
 H         4.902977        -0.261555        -2.136805
 H        -0.376076         0.759967         0.706637
 H        -0.381946         0.989751        -1.047691
 H        -0.407080        -0.789009        -0.439582
 H         2.287918         2.390039        -0.324413
 H         2.086924         1.691323         1.273857
 H         4.571716         1.033256         0.594664
 H         3.714519        -1.296524         1.589897
