19
Iteration:  2014
 C         4.546935        -1.086390        -1.485369
 C         3.543068        -0.500843        -0.548628
 O         2.339115        -0.175019        -1.288679
 C         1.512533         0.268201        -0.226511
 C         0.152712         0.724535        -0.502566
 C         2.353183         1.298394         0.657953
 C         3.571510         0.468981         0.774609
 C         3.052811        -1.018536         0.735511
 O         1.591892        -0.844614         0.659013
 H         4.324280        -2.159455        -1.555226
 H         4.239062        -0.512733        -2.498976
 H         5.579290        -0.762951        -1.295543
 H        -0.254595         1.042439         0.418014
 H         0.217589         1.599241        -1.180835
 H        -0.488252        -0.026636        -0.825451
 H         2.433745         2.400765         0.579066
 H         2.093735         1.289786         1.726262
 H         4.570825         0.698103         1.207625
 H         3.277892        -1.862995         1.303542
