19
Iteration:  1507
 C         4.601372        -1.072290        -1.356642
 C         3.502711        -0.442763        -0.612400
 O         2.293848         0.086436        -1.255984
 C         1.477956         0.377074        -0.096711
 C         0.070419         0.648858        -0.518656
 C         2.597557         1.375727         0.632229
 C         3.589190         0.238098         0.762947
 C         2.890070        -1.086247         0.625828
 O         1.550375        -0.957769         0.620015
 H         5.563784        -0.767933        -0.883785
 H         4.511225        -2.099581        -1.289695
 H         4.843097        -0.839458        -2.363498
 H        -0.435578         0.538167         0.430060
 H        -0.072948         1.607895        -0.982101
 H        -0.242620        -0.247613        -1.071767
 H         2.856385         2.157538        -0.284850
 H         2.616954         2.054384         1.545904
 H         4.501826         0.356001         1.367673
 H         3.270446        -2.026926         1.134098
