19
Iteration:  4426charge 0 multiplicity 1
 C         4.580553        -1.156670        -1.338137
 C         3.472460        -0.430078        -0.654484
 O         2.102948        -0.515556        -1.178492
 C         1.464353         0.082631        -0.098277
 C        -0.002519         0.095409        -0.281451
 C         2.237486         1.520432         0.081544
 C         3.573591         0.853578         0.206963
 C         3.319567        -0.554590         0.901875
 O         1.885425        -0.631101         1.080081
 H         4.257654        -1.988839        -1.954946
 H         5.194005        -0.476908        -1.974232
 H         5.236377        -1.650517        -0.751191
 H        -0.515071         0.583310         0.630454
 H        -0.131925         0.764026        -1.196827
 H        -0.371486        -0.956636        -0.269434
 H         2.051581         2.123175        -0.786207
 H         2.009861         2.135767         0.998672
 H         4.534444         1.361474         0.269199
 H         3.857351        -1.227905         1.474520
