19
Iteration:   138
 C         4.599493        -1.132859        -1.503872
 C         3.567616        -0.527300        -0.545544
 O         2.214053        -0.654142        -1.157798
 C         1.393593         0.139083        -0.296170
 C        -0.034588        -0.119032        -0.098367
 C         2.158697         1.475365         0.015065
 C         3.582565         0.887610         0.165367
 C         3.313105        -0.420554         1.011747
 O         1.878875        -0.369999         1.082130
 H         4.165415        -1.318553        -2.585382
 H         5.579634        -0.507597        -1.610095
 H         4.852307        -2.130345        -0.961616
 H        -0.371125         0.447775         0.771104
 H        -0.854092        -0.053219        -0.882981
 H        -0.019606        -1.181985         0.191757
 H         2.008234         2.195889        -0.773629
 H         1.773860         1.905969         1.048882
 H         4.252547         1.687909         0.041734
 H         3.850674        -1.031938         1.671047
