19
Iteration:  1106
 C         4.628069        -1.013917        -1.423366
 C         3.510877        -0.376997        -0.635677
 O         2.246846        -0.232719        -1.273872
 C         1.472219         0.180863        -0.064736
 C         0.042977         0.708046        -0.579196
 C         2.341374         1.302125         0.542190
 C         3.621927         0.498832         0.629551
 C         3.090791        -0.940791         0.758327
 O         1.686065        -0.936884         0.871638
 H         4.214924        -1.950765        -1.815240
 H         4.796688        -0.369444        -2.299046
 H         5.565318        -1.182438        -0.888797
 H        -0.709891         0.910482         0.235126
 H         0.254833         1.581748        -1.240669
 H        -0.511530        -0.070967        -1.197832
 H         2.512776         2.213530        -0.142777
 H         1.782963         1.558671         1.538311
 H         4.645401         0.676646         0.894764
 H         3.704057        -1.710086         1.304464
