19
Iteration:  1090
 C         4.567474        -1.028950        -1.440713
 C         3.495931        -0.492804        -0.569198
 O         2.258390        -0.219807        -1.285164
 C         1.491561         0.262210        -0.171970
 C         0.132232         0.581049        -0.458340
 C         2.315880         1.296723         0.583623
 C         3.593854         0.541780         0.564531
 C         3.119272        -0.893769         0.784747
 O         1.654725        -0.861555         0.746746
 H         4.217906        -1.801351        -2.169575
 H         5.317265        -0.358934        -1.906932
 H         5.289698        -1.537036        -0.743562
 H        -0.312228         0.917974         0.466003
 H         0.174014         1.417502        -1.162192
 H        -0.406882        -0.229860        -0.915630
 H         2.250267         2.213968         0.068972
 H         2.048344         1.402230         1.581853
 H         4.425416         1.007900         1.138074
 H         3.470971        -1.680331         1.411454
