19
Iteration:   831
 C         4.675750        -1.000477        -1.473763
 C         3.442088        -0.568750        -0.617040
 O         2.189518        -0.300099        -1.225143
 C         1.445573         0.266909        -0.065254
 C         0.002374         0.306284        -0.411095
 C         2.423251         1.496800         0.305394
 C         3.653793         0.542791         0.466589
 C         3.137895        -0.796426         0.882886
 O         1.664750        -0.742467         0.935089
 H         4.402854        -0.789968        -2.510696
 H         5.421562        -0.368700        -1.103726
 H         4.967410        -2.083825        -1.465359
 H        -0.690018         0.501284         0.429368
 H        -0.196636         0.816567        -1.352068
 H        -0.168458        -0.797777        -0.672022
 H         2.601465         2.227325        -0.519010
 H         2.103116         2.079339         1.303234
 H         4.605841         0.926656         0.669034
 H         3.592931        -1.546997         1.489698
