19
Iteration:  4431
 C         4.594083        -1.165081        -1.325209
 C         3.431617        -0.393961        -0.667296
 O         2.101128        -0.499079        -1.193506
 C         1.462934         0.099722        -0.035807
 C        -0.040667         0.073516        -0.289737
 C         2.230722         1.555897         0.107988
 C         3.544816         0.822725         0.184706
 C         3.310277        -0.534235         0.908571
 O         1.934264        -0.642783         1.059154
 H         4.230288        -1.985602        -1.985461
 H         5.301446        -0.612071        -1.931102
 H         5.298945        -1.865079        -0.615079
 H        -0.330880         0.633867         0.544701
 H        -0.175858         0.638379        -1.161742
 H        -0.391662        -0.934970        -0.444562
 H         2.238940         2.026829        -0.964119
 H         2.000245         2.129132         0.996005
 H         4.529227         1.270055         0.338013
 H         4.006885        -1.280132         1.457122
