19
Iteration:  1824
 C         4.509723        -0.965417        -1.501496
 C         3.547260        -0.467405        -0.507851
 O         2.296527         0.060434        -1.273496
 C         1.552743         0.324885        -0.106375
 C         0.106521         0.535945        -0.596864
 C         2.479614         1.294056         0.540474
 C         3.643829         0.321741         0.786071
 C         2.947738        -1.130978         0.755324
 O         1.605139        -0.831904         0.765451
 H         3.814599        -1.048457        -2.449705
 H         5.441387        -0.323002        -1.713541
 H         4.983931        -1.976741        -1.249373
 H        -0.461396         0.866549         0.324626
 H        -0.004902         1.347577        -1.357887
 H        -0.207814        -0.519136        -0.887802
 H         2.502270         2.076822        -0.193509
 H         1.943876         1.810953         1.269472
 H         4.597667         0.442354         1.356581
 H         3.198204        -2.032614         1.274680
