19
Iteration:  1185
 C         4.591696        -1.036891        -1.390653
 C         3.495636        -0.463529        -0.633029
 O         2.340916        -0.016424        -1.305478
 C         1.511076         0.271212        -0.068895
 C         0.094437         0.546540        -0.442461
 C         2.358470         1.368246         0.580511
 C         3.607372         0.368121         0.632265
 C         3.012178        -1.009860         0.724192
 O         1.590042        -0.871785         0.735462
 H         5.502357        -0.900585        -0.905504
 H         4.579586        -2.126222        -1.682395
 H         4.639368        -0.607010        -2.369710
 H        -0.579991         0.774679         0.410422
 H         0.066599         1.350011        -1.190745
 H        -0.265813        -0.411322        -0.938597
 H         2.642975         2.163278        -0.234773
 H         2.134900         1.803378         1.659651
 H         4.577343         0.731780         1.007771
 H         3.434506        -1.841776         1.212101
