19
Iteration:  4173
 C         4.626747        -1.186917        -1.433123
 C         3.520938        -0.522595        -0.597890
 O         2.219492        -0.472762        -1.191466
 C         1.472314         0.237315        -0.144187
 C        -0.032785         0.133458        -0.254222
 C         2.266820         1.446806         0.212955
 C         3.650698         0.792900         0.270899
 C         3.155092        -0.571933         0.823452
 O         1.821937        -0.582368         0.990684
 H         5.150066        -0.389553        -1.871780
 H         5.104380        -1.883235        -0.789379
 H         4.228049        -1.832927        -2.172154
 H        -0.508356         0.586060         0.637399
 H        -0.530329         0.623891        -1.091856
 H        -0.384722        -0.947272        -0.378517
 H         2.036727         2.281555        -0.442289
 H         1.828002         1.625828         1.271298
 H         4.608184         1.278004         0.565337
 H         3.577851        -1.154952         1.623750
