19
Iteration:     2
 C         4.552022        -1.111889        -1.427511
 C         3.487002        -0.443780        -0.614166
 O         2.150884        -0.634330        -1.087481
 C         1.464088         0.059818        -0.038842
 C        -0.020770        -0.094342        -0.159592
 C         2.133409         1.453246        -0.085752
 C         3.543796         0.921088         0.072775
 C         3.352679        -0.359167         0.881301
 O         1.971327        -0.508939         1.163410
 H         5.543313        -0.965747        -0.962331
 H         4.367870        -2.216588        -1.459873
 H         4.607667        -0.736471        -2.475883
 H        -0.493428         0.419524         0.683020
 H        -0.380900         0.320764        -1.081243
 H        -0.273126        -1.157847        -0.111248
 H         1.954823         1.961825        -1.038703
 H         1.796744         2.084876         0.710143
 H         4.455686         1.509398         0.066203
 H         4.007687        -0.776503         1.604491
