19
Iteration:   953
 C         4.598123        -1.000950        -1.435834
 C         3.502319        -0.496502        -0.564748
 O         2.243046        -0.219527        -1.301971
 C         1.499704         0.184505        -0.103413
 C         0.011179         0.397854        -0.438239
 C         2.432777         1.392814         0.392599
 C         3.678910         0.574057         0.529470
 C         3.075010        -0.914763         0.877255
 O         1.618987        -0.795735         0.859253
 H         5.518151        -0.619488        -1.014143
 H         4.517950        -1.996911        -1.675177
 H         4.464469        -0.415982        -2.319501
 H        -0.599444         0.716251         0.395682
 H        -0.091733         1.284899        -1.126179
 H        -0.329334        -0.476362        -0.923772
 H         2.634037         2.137369        -0.429535
 H         2.195503         2.037490         1.358517
 H         4.695733         0.938164         0.854958
 H         3.305336        -1.762755         1.552644
