19
Iteration:  1958
 C         4.544862        -0.993665        -1.419438
 C         3.421066        -0.447696        -0.603991
 O         2.276113        -0.046915        -1.254672
 C         1.461489         0.395126        -0.061607
 C         0.132083         0.569156        -0.584900
 C         2.498210         1.329749         0.652732
 C         3.693969         0.306979         0.670300
 C         2.987679        -1.057565         0.726803
 O         1.581724        -0.846747         0.734405
 H         4.413239        -2.046860        -1.671755
 H         4.774393        -0.442659        -2.494998
 H         5.478661        -0.903055        -0.809145
 H        -0.638007         0.655057         0.188815
 H         0.080775         1.326660        -1.373853
 H        -0.004205        -0.392019        -1.145669
 H         2.853307         1.990196        -0.174541
 H         2.319503         1.770338         1.633065
 H         4.647605         0.484442         1.139064
 H         3.151045        -2.113383         1.150060
