19
Iteration:  2226charge 0 multiplicity 1
 C         4.681904        -1.042090        -1.453025
 C         3.508446        -0.499061        -0.606289
 O         2.313533        -0.165585        -1.284827
 C         1.484079         0.213090        -0.115405
 C         0.078129         0.724534        -0.486640
 C         2.366331         1.264754         0.599621
 C         3.561599         0.435225         0.601322
 C         3.046066        -0.938190         0.746911
 O         1.612538        -0.875938         0.769261
 H         5.466551        -0.255877        -1.672250
 H         5.038780        -1.962650        -0.979280
 H         4.394477        -1.433183        -2.504391
 H        -0.408648         1.055509         0.393725
 H         0.041245         1.596109        -0.990210
 H        -0.639149         0.042411        -0.941018
 H         2.490682         2.224369         0.055730
 H         1.964366         1.551438         1.613224
 H         4.407357         0.889586         1.129081
 H         3.390121        -1.701381         1.374818
