19
Iteration:   875
 C         4.557307        -1.181594        -1.507114
 C         3.530704        -0.445882        -0.594349
 O         2.218760        -0.278371        -1.246031
 C         1.500592         0.189594        -0.076236
 C         0.075133         0.438706        -0.455745
 C         2.265040         1.408722         0.394892
 C         3.521981         0.694821         0.566253
 C         3.178779        -0.748246         0.847077
 O         1.808594        -0.860576         0.889374
 H         4.139775        -2.146081        -1.860258
 H         4.851600        -0.585931        -2.287431
 H         5.487129        -1.451330        -0.983446
 H        -0.540989         0.857458         0.341205
 H         0.142321         1.175919        -1.281717
 H        -0.620160        -0.301484        -0.867180
 H         2.288976         2.159297        -0.404985
 H         1.783618         1.798707         1.404879
 H         4.438539         1.230337         0.855529
 H         3.723354        -1.541798         1.371632
