19
Iteration:  4029
 C         4.630479        -1.122217        -1.410574
 C         3.502065        -0.504819        -0.580689
 O         2.224042        -0.410906        -1.260459
 C         1.478799         0.216800        -0.142164
 C        -0.031945         0.192688        -0.284799
 C         2.248428         1.514882         0.205044
 C         3.646742         0.689219         0.299824
 C         3.193689        -0.684381         0.897988
 O         1.785868        -0.665081         1.004582
 H         4.141154        -1.854479        -2.026989
 H         5.130550        -0.278924        -2.048059
 H         5.362734        -1.480927        -0.691164
 H        -0.492855         0.514815         0.636618
 H        -0.429375         0.787279        -1.140223
 H        -0.426791        -0.828233        -0.254253
 H         2.134964         2.227324        -0.677486
 H         1.827115         1.956125         1.107639
 H         4.585782         1.104832         0.492680
 H         3.676390        -1.309281         1.555589
