19
Iteration:  4479charge 0 multiplicity 1
 C         4.497402        -1.179579        -1.400653
 C         3.537975        -0.474638        -0.619528
 O         2.258118        -0.521344        -1.201022
 C         1.481539         0.164054        -0.196284
 C        -0.024297         0.021043        -0.216838
 C         2.191413         1.520212         0.133633
 C         3.544552         0.805740         0.265759
 C         3.264800        -0.461395         0.882980
 O         1.870682        -0.578048         1.063948
 H         3.956916        -1.784130        -2.182274
 H         5.362117        -0.691633        -1.993811
 H         4.962809        -2.054408        -0.931494
 H        -0.328529         0.560207         0.715491
 H        -0.388346         0.543650        -1.165514
 H        -0.198965        -1.075997        -0.255703
 H         2.146969         2.200747        -0.617115
 H         1.897479         1.849760         1.130365
 H         4.507935         1.296875         0.280677
 H         3.787896        -0.746352         1.703275
