19
Iteration:   127charge 0 multiplicity 1
 C         4.593751        -1.150366        -1.423300
 C         3.538475        -0.478313        -0.556757
 O         2.267724        -0.636501        -1.197194
 C         1.510646         0.087342        -0.190319
 C        -0.004777        -0.071334        -0.005404
 C         2.076957         1.458653        -0.076457
 C         3.503389         0.911455         0.166461
 C         3.267382        -0.421382         0.892882
 O         1.889567        -0.432830         1.075904
 H         4.196523        -1.053471        -2.498348
 H         5.607517        -0.624483        -1.366531
 H         4.776861        -2.268470        -1.277256
 H        -0.311209         0.619508         0.785505
 H        -0.543230         0.191563        -0.965205
 H        -0.226031        -1.088389         0.332115
 H         1.990590         2.170033        -0.887406
 H         1.667536         1.889052         0.913403
 H         4.418315         1.444099         0.227553
 H         3.767247        -0.950289         1.669548
