19
Iteration:  3454charge 0 multiplicity 1
 C         4.622166        -1.101292        -1.403126
 C         3.538808        -0.520497        -0.631955
 O         2.221602        -0.521550        -1.273549
 C         1.450298         0.151882        -0.108313
 C        -0.028052         0.368666        -0.257650
 C         2.234772         1.419158         0.237271
 C         3.610176         0.736274         0.339030
 C         3.202323        -0.684956         0.931727
 O         1.783488        -0.663419         0.951014
 H         5.451333        -1.422954        -0.778914
 H         4.276602        -1.769675        -2.219364
 H         5.170144        -0.484163        -2.189998
 H        -0.245292         0.817138         0.700759
 H        -0.310872         1.113576        -1.014219
 H        -0.549067        -0.516462        -0.437057
 H         2.270000         2.062775        -0.667478
 H         1.748464         1.851982         1.090666
 H         4.514475         1.363320         0.415409
 H         3.710394        -1.246207         1.654640
