19
Iteration:  1913
 C         4.653575        -1.057347        -1.386175
 C         3.556871        -0.500346        -0.587259
 O         2.364459        -0.111442        -1.338626
 C         1.516269         0.283905        -0.095588
 C         0.036826         0.740332        -0.339601
 C         2.419577         1.288052         0.531421
 C         3.589684         0.430719         0.647175
 C         2.986731        -0.990259         0.794960
 O         1.544846        -0.938920         0.600771
 H         4.120124        -1.402319        -2.304019
 H         5.398927        -0.149689        -1.689326
 H         5.255709        -1.848886        -0.850027
 H        -0.514090         0.845102         0.648520
 H        -0.138461         1.665021        -0.882714
 H        -0.548508        -0.078411        -0.934933
 H         2.525865         2.179162        -0.122066
 H         1.974119         1.512657         1.493584
 H         4.504025         0.856918         1.020553
 H         3.441260        -1.871357         1.310440
