19
Iteration:  3902charge 0 multiplicity 1
 C         4.616570        -1.006874        -1.436856
 C         3.449782        -0.501018        -0.572134
 O         2.205260        -0.414807        -1.206078
 C         1.433290         0.221202        -0.026958
 C         0.019391         0.306828        -0.336850
 C         2.350372         1.436159         0.140911
 C         3.626828         0.698123         0.401394
 C         3.169189        -0.744076         0.861150
 O         1.785135        -0.805293         0.991537
 H         5.479078        -0.774005        -0.872739
 H         4.372074        -2.030320        -1.619495
 H         4.654272        -0.456798        -2.364963
 H        -0.572768         0.866408         0.430889
 H        -0.077449         1.054041        -1.188618
 H        -0.505820        -0.597731        -0.770931
 H         2.378492         1.832148        -0.830105
 H         2.013876         2.211005         0.878970
 H         4.568929         1.104407         0.523842
 H         3.542546        -1.372054         1.562901
