19
Iteration:  4553charge 0 multiplicity 1
 C         4.601805        -1.021001        -1.444795
 C         3.516737        -0.483498        -0.601414
 O         2.182115        -0.652865        -1.089764
 C         1.460311         0.079615        -0.128526
 C        -0.089050         0.199722        -0.306787
 C         2.273418         1.496884         0.097638
 C         3.560676         0.770692         0.209984
 C         3.291782        -0.583834         0.893066
 O         1.823007        -0.570321         1.099487
 H         4.603112        -2.072051        -1.714545
 H         4.610857        -0.654095        -2.487896
 H         5.667544        -0.810744        -1.037018
 H        -0.276114         0.685245         0.603997
 H        -0.340028         0.757320        -1.180395
 H        -0.506782        -0.775943        -0.433952
 H         2.229558         2.209595        -0.758150
 H         1.848092         1.778560         1.076634
 H         4.582624         1.122076         0.139712
 H         3.793342        -0.928650         1.693279
