19
Iteration:   854
 C         4.543713        -1.011181        -1.486755
 C         3.523695        -0.478898        -0.574963
 O         2.268386        -0.350093        -1.253610
 C         1.490393         0.192960        -0.164750
 C         0.021632         0.376240        -0.463496
 C         2.315313         1.365604         0.414275
 C         3.679711         0.624377         0.437997
 C         3.147953        -0.803844         0.841869
 O         1.700659        -0.713564         0.964384
 H         3.969128        -1.553336        -2.263411
 H         5.302971        -0.287051        -1.769263
 H         4.961331        -1.884338        -0.941306
 H        -0.409968         0.716161         0.465854
 H        -0.176257         1.071492        -1.292411
 H        -0.574859        -0.528455        -0.703474
 H         2.198610         2.271214        -0.200909
 H         1.921794         1.585763         1.518474
 H         4.627716         1.048808         0.829153
 H         3.692589        -1.357562         1.608069
