19
Iteration:  2365
 C         4.630372        -1.019227        -1.371557
 C         3.498879        -0.493623        -0.600080
 O         2.211398        -0.111278        -1.359895
 C         1.492829         0.272165        -0.114502
 C         0.052386         0.581667        -0.411225
 C         2.427756         1.317802         0.510931
 C         3.577283         0.444500         0.653445
 C         3.039825        -1.004034         0.736016
 O         1.663365        -0.853486         0.778199
 H         4.874788        -2.058343        -1.137001
 H         4.467075        -0.850281        -2.363112
 H         5.535327        -0.487345        -1.094818
 H        -0.519992         0.809795         0.533831
 H         0.168432         1.520015        -1.067107
 H        -0.257634        -0.371331        -0.978931
 H         2.603305         2.005457        -0.241199
 H         2.062874         1.882358         1.317878
 H         4.568511         0.902123         0.876873
 H         3.543625        -1.861367         1.294095
