19
Iteration:   565
 C         4.536277        -1.095798        -1.415407
 C         3.489955        -0.381432        -0.609941
 O         2.191712        -0.413840        -1.180539
 C         1.486457         0.108637        -0.122549
 C        -0.042286         0.150331        -0.410016
 C         2.276309         1.463796         0.179226
 C         3.579483         0.770464         0.310828
 C         3.237963        -0.664644         0.866791
 O         1.873350        -0.705398         1.123527
 H         5.307671        -0.356241        -1.663362
 H         4.892378        -1.940073        -0.811470
 H         4.104339        -1.426740        -2.317102
 H        -0.529972         0.486729         0.484398
 H        -0.103942         0.843355        -1.283346
 H        -0.387785        -0.806774        -0.720634
 H         2.260193         2.108981        -0.800546
 H         2.079859         2.060803         1.059003
 H         4.493383         1.371421         0.497221
 H         3.758529        -1.402448         1.566304
