19
Iteration:   820charge 0 multiplicity 1
 C         4.627476        -0.946566        -1.421896
 C         3.447440        -0.568852        -0.626683
 O         2.192255        -0.312940        -1.301743
 C         1.500139         0.315022        -0.010878
 C         0.015642         0.282171        -0.408787
 C         2.410153         1.451306         0.269160
 C         3.636220         0.566467         0.521579
 C         3.141693        -0.847916         0.791977
 O         1.681108        -0.726871         0.986508
 H         4.720413        -0.443613        -2.400800
 H         5.578231        -0.853054        -1.014244
 H         4.547136        -2.082327        -1.520072
 H        -0.676074         0.579961         0.428253
 H        -0.312487         0.894253        -1.247524
 H        -0.200779        -0.813192        -0.631679
 H         2.403893         1.877394        -0.756894
 H         2.027656         2.271799         1.085556
 H         4.573562         0.805004         0.883284
 H         3.698770        -1.369658         1.523478
