19
Iteration:  4068
 C         4.573062        -0.991749        -1.458742
 C         3.476229        -0.456540        -0.561974
 O         2.150002        -0.524215        -1.166031
 C         1.471760         0.161042        -0.067471
 C         0.004649         0.248435        -0.395741
 C         2.339835         1.478214         0.128623
 C         3.637067         0.715805         0.306637
 C         3.169930        -0.683185         0.924607
 O         1.805522        -0.693860         1.107420
 H         4.272415        -1.341788        -2.511347
 H         5.387205        -0.087737        -1.651807
 H         5.079410        -1.926962        -1.101590
 H        -0.742431         0.680752         0.357604
 H        -0.094744         0.837433        -1.332639
 H        -0.266273        -0.790559        -0.660626
 H         2.306523         1.979541        -0.869559
 H         1.960300         2.130606         0.923595
 H         4.727938         0.957696         0.414590
 H         3.691645        -1.368966         1.549995
