19
Iteration:  1491
 C         4.662454        -1.084350        -1.310715
 C         3.430446        -0.530046        -0.612869
 O         2.336258         0.068109        -1.262804
 C         1.506391         0.384940        -0.050562
 C         0.017280         0.636032        -0.459182
 C         2.551983         1.322029         0.641266
 C         3.668394         0.288892         0.656719
 C         2.961449        -1.088031         0.622239
 O         1.500894        -0.845839         0.599934
 H         5.517702        -0.994229        -0.595135
 H         4.657801        -2.247012        -1.520194
 H         4.729643        -0.407317        -2.205622
 H        -0.754216         0.749263         0.339506
 H        -0.113033         1.547730        -1.105780
 H        -0.262115        -0.156483        -1.192454
 H         2.850708         2.068801         0.033942
 H         2.092564         1.573041         1.567341
 H         4.647977         0.414492         1.106493
 H         3.334126        -2.002876         1.001556
