19
Iteration:  1520
 C         4.636659        -1.074769        -1.421896
 C         3.508198        -0.448760        -0.542174
 O         2.308299         0.092627        -1.311022
 C         1.555068         0.320790        -0.153472
 C         0.114088         0.645954        -0.460674
 C         2.501211         1.319021         0.638424
 C         3.626977         0.300796         0.784384
 C         2.922123        -1.127434         0.704981
 O         1.493142        -0.887916         0.633734
 H         5.623218        -0.830629        -1.116531
 H         4.457881        -2.163753        -1.432005
 H         4.369593        -0.842015        -2.435494
 H        -0.567585         0.709517         0.363209
 H         0.115385         1.657465        -0.956047
 H        -0.240635         0.008201        -1.199856
 H         2.948131         2.103059        -0.173208
 H         1.884345         1.748796         1.475968
 H         4.654897         0.394209         1.229008
 H         3.237173        -2.033789         1.156594
