19
Iteration:  2670
 C         4.563118        -0.979251        -1.451734
 C         3.506384        -0.458500        -0.518034
 O         2.214099        -0.239541        -1.236907
 C         1.481571         0.208468        -0.132027
 C         0.116384         0.573577        -0.474058
 C         2.324150         1.350484         0.415845
 C         3.614186         0.538940         0.576476
 C         3.142866        -0.897202         0.843503
 O         1.714258        -0.902098         0.811439
 H         4.836477        -0.322277        -2.340356
 H         5.437452        -1.423547        -0.940536
 H         4.154625        -1.836895        -2.104401
 H        -0.658975         0.848443         0.202037
 H         0.001733         1.394883        -1.098509
 H        -0.351537        -0.346365        -0.880138
 H         2.520773         2.198365        -0.314852
 H         1.833236         1.875899         1.298911
 H         4.607508         0.801713         0.996104
 H         3.464822        -1.718789         1.547086
