19
Iteration:  4337charge 0 multiplicity 1
 C         4.659918        -1.196163        -1.471310
 C         3.486487        -0.556414        -0.638828
 O         2.138877        -0.507041        -1.146906
 C         1.489430         0.160539        -0.107149
 C        -0.046314         0.165232        -0.343793
 C         2.249483         1.461154         0.217317
 C         3.617413         0.837169         0.225224
 C         3.236865        -0.456249         0.846645
 O         1.838352        -0.620793         1.116643
 H         5.092205        -2.052637        -0.918715
 H         4.176378        -1.360907        -2.463685
 H         5.442689        -0.534168        -1.614808
 H        -0.581452         0.604062         0.565430
 H        -0.406092         0.694379        -1.302065
 H        -0.261369        -1.011911        -0.432065
 H         2.017657         2.024587        -0.663126
 H         1.890383         1.703546         1.270457
 H         4.530687         1.389594         0.444186
 H         3.829123        -1.142668         1.544246
