19
Iteration:  2286
 C         4.573900        -1.001817        -1.536819
 C         3.578960        -0.479991        -0.534862
 O         2.307588        -0.006419        -1.242466
 C         1.488840         0.302909        -0.073045
 C         0.069312         0.506084        -0.552080
 C         2.465241         1.381985         0.487198
 C         3.664580         0.424467         0.708893
 C         2.992218        -1.029891         0.809303
 O         1.553651        -0.904314         0.792247
 H         5.551378        -1.273463        -1.227250
 H         4.112515        -2.044295        -1.727564
 H         4.408994        -0.397177        -2.375347
 H        -0.546859         0.702164         0.397056
 H         0.021895         1.288102        -1.465824
 H        -0.276410        -0.466276        -0.972941
 H         2.684137         2.024764        -0.406651
 H         2.025677         1.865742         1.366531
 H         4.599284         0.725002         1.177158
 H         3.325268        -1.844707         1.413729
