19
Iteration:   338charge 0 multiplicity 1
 C         4.564305        -1.113344        -1.374932
 C         3.419818        -0.507555        -0.639875
 O         2.159221        -0.494469        -1.136354
 C         1.437328         0.088082        -0.056064
 C         0.038448         0.072739        -0.310276
 C         2.188010         1.509454        -0.074633
 C         3.557134         0.886226         0.263752
 C         3.276039        -0.492583         0.875840
 O         1.972857        -0.681112         1.222117
 H         5.033173        -0.296059        -1.990998
 H         5.294139        -1.669767        -0.730903
 H         4.076199        -1.890103        -2.027921
 H        -0.663574         0.586510         0.316448
 H        -0.098662         0.556809        -1.294034
 H        -0.295171        -0.967916        -0.396853
 H         2.167307         1.898059        -1.139705
 H         1.755355         2.161647         0.604429
 H         4.504141         1.361321         0.390374
 H         4.027938        -0.999417         1.385103
