19
Iteration:   476
 C         4.623657        -1.105589        -1.440963
 C         3.507094        -0.512458        -0.552958
 O         2.214913        -0.431420        -1.185259
 C         1.419966         0.152286        -0.160004
 C        -0.086115         0.021765        -0.259011
 C         2.320743         1.534599         0.106694
 C         3.685669         0.776190         0.274231
 C         3.176251        -0.574353         0.931837
 O         1.797232        -0.613373         1.051853
 H         5.002358        -2.134934        -1.359079
 H         4.175382        -1.254257        -2.418125
 H         5.406484        -0.429091        -1.610539
 H        -0.693610         0.482200         0.600599
 H        -0.525380         0.312166        -1.236387
 H        -0.357233        -1.086833        -0.206468
 H         2.250751         2.260635        -0.757389
 H         2.046615         2.226360         1.002075
 H         4.671592         1.206969         0.364105
 H         3.747364        -1.123847         1.642056
