19
Iteration:  1879
 C         4.592243        -1.045753        -1.400087
 C         3.450639        -0.457723        -0.612962
 O         2.310440        -0.074510        -1.287465
 C         1.482938         0.275175        -0.055550
 C         0.116921         0.731553        -0.523195
 C         2.376875         1.287475         0.593859
 C         3.557933         0.382479         0.658617
 C         3.090019        -1.049092         0.704442
 O         1.647499        -0.916424         0.774123
 H         4.333636        -1.153671        -2.508012
 H         5.464042        -0.285048        -1.416067
 H         4.976177        -2.061061        -1.099619
 H        -0.568886         0.959305         0.349926
 H         0.227774         1.662755        -1.100330
 H        -0.422283        -0.072570        -1.171808
 H         2.609628         2.097023        -0.097692
 H         1.825100         1.567747         1.452781
 H         4.459205         0.861367         1.048496
 H         3.438424        -1.965597         1.049495
