19
Iteration:  2476charge 0 multiplicity 1
 C         4.669782        -1.134685        -1.378522
 C         3.542163        -0.448038        -0.560384
 O         2.304902        -0.139074        -1.385248
 C         1.494167         0.308066        -0.208240
 C         0.062157         0.492038        -0.306056
 C         2.364988         1.363799         0.478514
 C         3.553056         0.523777         0.594925
 C         3.052124        -0.925214         0.728861
 O         1.630839        -0.810737         0.780926
 H         4.244273        -1.227278        -2.374361
 H         5.536835        -0.638811        -1.368585
 H         4.908477        -2.183244        -1.149707
 H        -0.229897         0.716669         0.761441
 H        -0.390275         1.143915        -1.048919
 H        -0.551223        -0.440680        -0.614915
 H         2.356062         2.287318         0.012625
 H         2.008571         1.416631         1.481715
 H         4.434420         0.875208         1.118136
 H         3.533468        -1.655155         1.324860
