19
Iteration:  4115
 C         4.542587        -1.150571        -1.464052
 C         3.568203        -0.405851        -0.612255
 O         2.231562        -0.450688        -1.158413
 C         1.474846         0.141650        -0.073123
 C        -0.003956         0.206756        -0.388528
 C         2.282349         1.483496         0.163681
 C         3.559971         0.769266         0.336510
 C         3.229339        -0.628459         0.903401
 O         1.792743        -0.725755         1.043023
 H         4.276455        -1.174812        -2.520905
 H         5.532528        -0.831157        -1.468865
 H         4.437449        -2.205487        -1.181444
 H        -0.478654         0.728917         0.514540
 H        -0.081022         0.977504        -1.230714
 H        -0.565540        -0.782125        -0.541362
 H         2.221412         2.270795        -0.711138
 H         1.926387         1.905101         1.108954
 H         4.405155         1.402617         0.483705
 H         3.784755        -1.218031         1.689511
