19
Iteration:  1342
 C         4.599555        -1.085430        -1.445128
 C         3.532774        -0.327157        -0.581690
 O         2.317020        -0.059160        -1.288466
 C         1.511548         0.234609        -0.142273
 C         0.105571         0.837036        -0.453047
 C         2.369954         1.281877         0.575039
 C         3.579441         0.401211         0.764735
 C         3.042132        -1.062943         0.711567
 O         1.615671        -1.033879         0.666810
 H         4.094243        -1.861509        -2.121682
 H         5.221901        -0.497625        -2.018628
 H         5.124436        -1.652736        -0.671354
 H        -0.580154         0.825974         0.387977
 H         0.147270         1.795479        -0.906993
 H        -0.501069         0.124458        -1.022470
 H         2.628850         2.188361        -0.163126
 H         1.746448         1.689695         1.444051
 H         4.562684         0.633287         1.257137
 H         3.424255        -1.862466         1.277995
