19
Iteration:   330charge 0 multiplicity 1
 C         4.533009        -1.129151        -1.396290
 C         3.538079        -0.421831        -0.590122
 O         2.123352        -0.586873        -1.104634
 C         1.444192         0.089688        -0.067180
 C        -0.006215         0.092249        -0.368075
 C         2.184274         1.482839        -0.028175
 C         3.559300         0.907853         0.249864
 C         3.307101        -0.483034         0.851956
 O         1.988173        -0.690324         1.196208
 H         5.189613        -0.537116        -1.948795
 H         5.109069        -1.828841        -0.831237
 H         3.947286        -1.723829        -2.089046
 H        -0.558836         0.692835         0.387866
 H        -0.142481         0.569449        -1.404547
 H        -0.619025        -0.802548        -0.428844
 H         2.014007         2.025379        -0.970890
 H         1.694882         2.160365         0.671830
 H         4.459542         1.512931         0.487856
 H         4.095727        -0.853647         1.528829
