19
Iteration:  2884
 C         4.636347        -1.044565        -1.456243
 C         3.531332        -0.390385        -0.596070
 O         2.260279        -0.202541        -1.185751
 C         1.497747         0.137066        -0.140714
 C         0.029801         0.533940        -0.399325
 C         2.360297         1.379854         0.335696
 C         3.612382         0.572964         0.560571
 C         3.078414        -0.890776         0.831421
 O         1.651401        -0.892730         0.832143
 H         5.585010        -0.500242        -1.601791
 H         4.968218        -2.092620        -1.161181
 H         4.362172        -1.234220        -2.465609
 H        -0.489381         0.847602         0.569541
 H        -0.056285         1.532667        -0.866521
 H        -0.520953        -0.426484        -0.677002
 H         2.343040         2.039650        -0.492627
 H         1.882625         1.902051         1.108347
 H         4.558623         0.827342         0.974856
 H         3.505617        -1.702533         1.321816
