19
Iteration:  1190charge 0 multiplicity 1
 C         4.584615        -1.054504        -1.394634
 C         3.449603        -0.436631        -0.616009
 O         2.326356        -0.007721        -1.294500
 C         1.492368         0.216614        -0.046547
 C         0.135171         0.552913        -0.453267
 C         2.394257         1.361560         0.601929
 C         3.604156         0.436902         0.579595
 C         3.007647        -1.022918         0.719644
 O         1.597991        -0.897000         0.719443
 H         5.594576        -0.743005        -0.877394
 H         4.558990        -2.140904        -1.434119
 H         4.761623        -0.686090        -2.456657
 H        -0.448023         0.885633         0.395055
 H         0.116169         1.380346        -1.175727
 H        -0.267915        -0.295736        -0.943901
 H         2.614421         2.097584        -0.110539
 H         2.052602         1.789833         1.496587
 H         4.521265         0.745249         1.052610
 H         3.369377        -1.954910         1.235984
