19
Iteration:    11
 C         4.515102        -1.082950        -1.477592
 C         3.482549        -0.380218        -0.604133
 O         2.108834        -0.614492        -1.135039
 C         1.488213         0.053409        -0.000891
 C         0.075212        -0.112295        -0.156267
 C         2.171795         1.413782        -0.180840
 C         3.583351         0.972327         0.181964
 C         3.325277        -0.366663         0.912709
 O         1.904243        -0.542586         1.212372
 H         5.523955        -0.912602        -1.130546
 H         4.331814        -2.095271        -1.228600
 H         4.496292        -0.985858        -2.536839
 H        -0.359787         0.331235         0.743455
 H        -0.365913         0.325493        -1.068728
 H        -0.090178        -1.190098        -0.093595
 H         2.082114         1.660802        -1.251875
 H         1.671369         2.211475         0.425983
 H         4.525309         1.393006        -0.086265
 H         3.963256        -0.938708         1.582377
