19
Iteration:  2051charge 0 multiplicity 1
 C         4.689420        -1.018705        -1.316269
 C         3.473467        -0.486895        -0.655373
 O         2.247467         0.046381        -1.308700
 C         1.450224         0.297753        -0.008887
 C         0.088048         0.585420        -0.469299
 C         2.487761         1.363728         0.502581
 C         3.632467         0.272652         0.628248
 C         2.967325        -1.087180         0.647153
 O         1.567126        -0.833164         0.754921
 H         4.562400        -1.999210        -1.882730
 H         5.102080        -0.402813        -2.024242
 H         5.457884        -1.199205        -0.528745
 H        -0.507170         0.868835         0.425164
 H         0.124259         1.394223        -1.135080
 H        -0.465772        -0.270296        -0.934981
 H         2.977554         1.980614        -0.261917
 H         2.261684         1.724901         1.577757
 H         4.480269         0.695598         1.139303
 H         3.181467        -2.071446         1.215053
