19
Iteration:   786
 C         4.629412        -1.088669        -1.440603
 C         3.516521        -0.505475        -0.557697
 O         2.245522        -0.387982        -1.265353
 C         1.452319         0.228973        -0.151523
 C        -0.040443         0.387601        -0.393227
 C         2.300271         1.387421         0.337849
 C         3.627715         0.706557         0.402952
 C         3.199851        -0.706649         0.903186
 O         1.731853        -0.801085         0.914357
 H         5.336015        -0.345620        -1.802032
 H         5.067270        -1.902311        -0.948550
 H         4.051208        -1.409837        -2.357675
 H        -0.302512         0.694064         0.660854
 H        -0.263329         1.187247        -1.095192
 H        -0.453915        -0.649573        -0.641802
 H         2.169271         2.245158        -0.386990
 H         1.840994         1.787692         1.344023
 H         4.628489         1.033174         0.640592
 H         3.745385        -1.288458         1.665029
