19
Iteration:  3671
 C         4.490587        -1.156901        -1.413764
 C         3.496613        -0.411070        -0.612815
 O         2.194538        -0.384142        -1.126841
 C         1.437410         0.148836         0.019228
 C        -0.001700         0.215550        -0.503837
 C         2.301573         1.490190         0.233962
 C         3.586080         0.758948         0.301358
 C         3.252577        -0.661515         0.838880
 O         1.849844        -0.734741         1.056950
 H         4.933189        -1.991753        -0.947637
 H         3.978500        -1.450057        -2.367701
 H         5.356291        -0.756558        -1.763139
 H        -0.725231         0.562142         0.316237
 H         0.115983         0.872045        -1.447528
 H        -0.263820        -0.867142        -0.775348
 H         2.480256         2.159624        -0.675904
 H         2.029719         2.051105         1.159377
 H         4.459047         1.226468         0.530445
 H         3.851118        -1.261921         1.422537
