19
Iteration:  2393charge 0 multiplicity 1
 C         4.569157        -0.971846        -1.560296
 C         3.616256        -0.546015        -0.469170
 O         2.363297        -0.207718        -1.247689
 C         1.514147         0.282938        -0.183845
 C        -0.000717         0.501553        -0.484835
 C         2.460938         1.355149         0.527259
 C         3.641233         0.417188         0.598418
 C         2.956241        -0.961308         0.822131
 O         1.574042        -0.764349         0.775589
 H         4.532773        -2.009478        -1.990886
 H         4.269282        -0.261281        -2.499213
 H         5.616607        -0.710164        -1.274135
 H        -0.548067         0.738162         0.424893
 H        -0.154482         1.433389        -1.018523
 H        -0.351293        -0.419004        -0.819985
 H         2.380460         2.379860        -0.057385
 H         2.093757         1.629112         1.592344
 H         4.530734         0.598440         1.209984
 H         3.231337        -1.514713         1.661285
