19
Iteration:  1719
 C         4.566012        -0.974864        -1.539007
 C         3.556553        -0.540960        -0.549409
 O         2.415692        -0.049850        -1.344953
 C         1.515778         0.354288        -0.147348
 C         0.087529         0.599534        -0.523842
 C         2.504919         1.384645         0.675974
 C         3.613305         0.325680         0.793609
 C         2.895945        -1.067762         0.769026
 O         1.497663        -0.870675         0.705109
 H         4.692953        -1.980951        -1.454494
 H         4.197061        -0.690315        -2.531100
 H         5.479949        -0.534588        -1.290413
 H        -0.434970         0.521782         0.427065
 H        -0.087548         1.500576        -1.022484
 H        -0.268596        -0.271259        -1.132580
 H         2.841188         2.165531        -0.127341
 H         2.040150         1.863339         1.618922
 H         4.542990         0.406724         1.406147
 H         3.183752        -1.969234         1.264487
