19
Iteration:  2853
 C         4.569132        -0.970523        -1.512731
 C         3.463469        -0.549327        -0.577648
 O         2.265463        -0.276537        -1.267347
 C         1.543012         0.200946        -0.120350
 C         0.029739         0.465054        -0.490099
 C         2.414100         1.377269         0.480509
 C         3.662284         0.510146         0.551726
 C         3.057265        -0.883266         0.888205
 O         1.673294        -0.713123         0.864867
 H         5.044050        -0.001687        -1.858419
 H         5.183168        -1.764548        -1.021651
 H         4.060295        -1.167754        -2.437503
 H        -0.560594         0.574670         0.478885
 H         0.006671         1.230029        -1.305651
 H        -0.312754        -0.541924        -0.985332
 H         2.432780         2.313914        -0.157767
 H         1.816213         1.568324         1.424138
 H         4.651470         0.680017         0.835268
 H         3.474798        -1.613047         1.509387
