19
Iteration:  2181
 C         4.676090        -1.073259        -1.415433
 C         3.466877        -0.481806        -0.608503
 O         2.334730        -0.055497        -1.358648
 C         1.490935         0.324947        -0.181893
 C         0.000940         0.548580        -0.397222
 C         2.455383         1.319415         0.579718
 C         3.649849         0.351782         0.735349
 C         3.043165        -1.010029         0.710313
 O         1.539981        -0.788669         0.728157
 H         4.758857        -0.391348        -2.370064
 H         5.553232        -0.961373        -0.801234
 H         4.501078        -2.170595        -1.743214
 H        -0.489945         0.794316         0.503610
 H        -0.203566         1.354356        -0.960789
 H        -0.459552        -0.324691        -0.822340
 H         2.665121         2.182787        -0.070232
 H         2.016799         1.827095         1.470388
 H         4.608714         0.573248         1.208608
 H         3.334858        -1.881564         1.270343
