19
Iteration:  4079charge 0 multiplicity 1
 C         4.576617        -1.020344        -1.500734
 C         3.474903        -0.571604        -0.555219
 O         2.207633        -0.516266        -1.104697
 C         1.466814         0.153771        -0.130127
 C         0.016220         0.251738        -0.413827
 C         2.280695         1.451343         0.151440
 C         3.571448         0.709833         0.311224
 C         3.236081        -0.679442         0.930668
 O         1.804986        -0.632050         1.049634
 H         3.978913        -1.127269        -2.461333
 H         5.430932        -0.169537        -1.637998
 H         5.075644        -1.947814        -1.116254
 H        -0.497146         0.718004         0.509630
 H        -0.099736         0.935500        -1.282214
 H        -0.477298        -0.701336        -0.640850
 H         2.313600         2.286513        -0.582833
 H         2.048058         1.868370         1.123303
 H         4.493031         1.318073         0.408983
 H         3.742593        -1.111896         1.724720
