19
Iteration:   604charge 0 multiplicity 1
 C         4.533361        -1.120170        -1.501659
 C         3.550254        -0.455971        -0.544902
 O         2.259784        -0.399629        -1.192390
 C         1.454404         0.214789        -0.166208
 C         0.038965         0.049886        -0.329834
 C         2.338025         1.554624         0.230899
 C         3.591143         0.746067         0.330330
 C         3.096078        -0.654788         0.872775
 O         1.781615        -0.682347         0.997156
 H         4.580774        -0.648345        -2.536320
 H         5.541756        -1.073553        -1.003803
 H         4.425007        -2.286299        -1.519263
 H        -0.431101         0.441656         0.623100
 H        -0.507069         0.756570        -0.950882
 H        -0.313482        -1.000549        -0.521590
 H         2.385098         2.243089        -0.531280
 H         1.909352         1.981560         1.192052
 H         4.539207         1.254879         0.673401
 H         3.667059        -1.119869         1.677244
