19
Iteration:  3200charge 0 multiplicity 1
 C         4.599256        -1.114662        -1.365213
 C         3.437590        -0.448055        -0.633669
 O         2.153529        -0.278771        -1.223461
 C         1.474648         0.206873        -0.046411
 C         0.048995         0.288124        -0.378204
 C         2.304638         1.444158         0.270841
 C         3.604684         0.660706         0.380495
 C         3.215289        -0.742172         0.819169
 O         1.799287        -0.773986         0.946582
 H         5.204463        -0.315988        -1.857923
 H         5.090557        -1.874264        -0.642982
 H         4.259989        -1.853637        -2.063657
 H        -0.462992         0.650727         0.518067
 H         0.022322         0.886796        -1.248697
 H        -0.400141        -0.666913        -0.756052
 H         2.128361         2.083009        -0.622182
 H         2.029175         1.964228         1.212709
 H         4.586350         1.026562         0.573226
 H         3.757126        -1.344914         1.431891
