19
Iteration:   989
 C         4.641933        -1.042537        -1.547375
 C         3.559782        -0.443798        -0.578574
 O         2.200864        -0.367215        -1.259737
 C         1.449542         0.206011        -0.138867
 C         0.079752         0.651904        -0.563377
 C         2.308791         1.402084         0.523245
 C         3.584836         0.602785         0.578645
 C         3.132677        -0.914293         0.842051
 O         1.699869        -0.899080         0.954192
 H         5.456805        -0.348562        -1.808353
 H         5.290233        -1.943467        -1.164381
 H         4.111576        -1.282328        -2.477057
 H        -0.471970         0.873271         0.350641
 H         0.260898         1.411935        -1.253231
 H        -0.558741        -0.103571        -1.055739
 H         2.302417         2.247342        -0.230189
 H         1.724602         1.625665         1.396264
 H         4.410241         1.096990         0.979370
 H         3.655404        -1.624268         1.443021
