19
Iteration:  4591
 C         4.558981        -1.251267        -1.347380
 C         3.501176        -0.409487        -0.657352
 O         2.180994        -0.341602        -1.185629
 C         1.456452         0.095635        -0.110319
 C        -0.011565         0.051837        -0.251765
 C         2.203469         1.536502         0.053855
 C         3.601646         0.836919         0.291945
 C         3.311829        -0.604762         0.868927
 O         1.864656        -0.695635         1.042454
 H         4.696278        -2.154297        -0.706988
 H         4.127599        -1.271318        -2.406041
 H         5.480539        -0.673737        -1.365591
 H        -0.514068         0.665560         0.579318
 H        -0.366235         0.623841        -1.153784
 H        -0.517609        -0.949072        -0.130627
 H         2.293263         2.007136        -0.918842
 H         1.834801         2.245480         0.776933
 H         4.558857         1.369061         0.324919
 H         3.900269        -1.081572         1.795239
