19
Iteration:   452
 C         4.521220        -1.118610        -1.418576
 C         3.505717        -0.454692        -0.633774
 O         2.206202        -0.521112        -1.171785
 C         1.475671         0.164655        -0.126471
 C         0.072299         0.078998        -0.340892
 C         2.179078         1.429850         0.154638
 C         3.579766         0.767661         0.228117
 C         3.302517        -0.550287         0.901962
 O         1.831793        -0.544636         1.094182
 H         4.328309        -2.179488        -1.429398
 H         4.444180        -0.940729        -2.477816
 H         5.545981        -0.913220        -1.145104
 H        -0.579320         0.536782         0.502423
 H        -0.223408         0.539154        -1.324144
 H        -0.355322        -0.993962        -0.400203
 H         2.091072         2.346186        -0.376686
 H         1.926916         1.764340         1.251837
 H         4.410914         1.375321         0.478225
 H         3.855705        -1.041927         1.662461
