19
Iteration:  2206charge 0 multiplicity 1
 C         4.628117        -1.043796        -1.337537
 C         3.479325        -0.432360        -0.562888
 O         2.268204        -0.077969        -1.267008
 C         1.516458         0.293088        -0.114969
 C         0.124880         0.645288        -0.359410
 C         2.419630         1.375539         0.434529
 C         3.632776         0.430171         0.636871
 C         2.998081        -1.023808         0.763335
 O         1.604019        -1.018173         0.635319
 H         5.089881        -0.192017        -1.896232
 H         5.420218        -1.560382        -0.700248
 H         4.123935        -1.700441        -2.123718
 H        -0.426211         0.982536         0.551629
 H         0.146198         1.607093        -1.022381
 H        -0.505683        -0.153787        -0.846421
 H         2.452354         2.247974        -0.351670
 H         1.883280         1.910267         1.350322
 H         4.632304         0.637504         1.038080
 H         3.317832        -1.928548         1.256633
