19
Iteration:  4650charge 0 multiplicity 1
 C         4.555828        -1.148611        -1.419497
 C         3.522869        -0.481485        -0.612960
 O         2.196682        -0.512501        -1.142737
 C         1.465361         0.168449        -0.096202
 C        -0.065224         0.146013        -0.383102
 C         2.208844         1.432959         0.098918
 C         3.604438         0.801205         0.239910
 C         3.281273        -0.516612         0.892669
 O         1.868182        -0.631734         1.182624
 H         5.025268        -2.080568        -1.222335
 H         4.021903        -1.584144        -2.251105
 H         5.293432        -0.431657        -1.918454
 H        -0.635980         0.500794         0.467480
 H        -0.217728         0.673668        -1.325349
 H        -0.185334        -0.926601        -0.618479
 H         2.171796         2.257811        -0.782833
 H         1.858263         1.968419         1.058291
 H         4.516630         1.417328         0.449771
 H         3.919567        -1.061759         1.559083
