19
Iteration:  3031charge 0 multiplicity 1
 C         4.620809        -1.015662        -1.322755
 C         3.419731        -0.446761        -0.670682
 O         2.218103        -0.281681        -1.264034
 C         1.447734         0.199938        -0.056603
 C        -0.040473         0.412931        -0.381225
 C         2.422913         1.406412         0.355426
 C         3.673283         0.587142         0.425257
 C         3.155093        -0.876592         0.793882
 O         1.703454        -0.815563         0.896998
 H         4.703477        -2.079538        -1.128103
 H         4.636610        -0.857108        -2.375190
 H         5.502355        -0.380338        -1.180197
 H        -0.544514         0.799344         0.502251
 H        -0.036817         1.295618        -1.088942
 H        -0.461501        -0.489678        -0.794336
 H         2.428991         2.140419        -0.517326
 H         1.980968         1.880631         1.319951
 H         4.719686         0.816773         0.642123
 H         3.615471        -1.535897         1.447844
