19
Iteration:   347
 C         4.565333        -1.105363        -1.386078
 C         3.414244        -0.519766        -0.578666
 O         2.146426        -0.452850        -1.191781
 C         1.504556         0.147147        -0.017753
 C        -0.022726         0.014514        -0.285278
 C         2.215633         1.468921        -0.053869
 C         3.543770         0.820806         0.221594
 C         3.324825        -0.513499         0.895080
 O         1.885649        -0.613547         1.174874
 H         5.001078        -0.300612        -2.113966
 H         5.417680        -1.255680        -0.651959
 H         4.431918        -2.014676        -2.033615
 H        -0.540952         0.505838         0.532418
 H        -0.139108         0.461490        -1.237444
 H        -0.082878        -1.064920        -0.364237
 H         2.232980         1.792768        -1.121950
 H         1.926926         2.255691         0.655433
 H         4.479314         1.310237         0.221523
 H         3.892057        -1.129982         1.534181
