19
Iteration:  2994
 C         4.593427        -0.983535        -1.615535
 C         3.481366        -0.483909        -0.605295
 O         2.319941        -0.376440        -1.219707
 C         1.497662         0.245277        -0.120780
 C         0.063623         0.435143        -0.455884
 C         2.313239         1.432763         0.452067
 C         3.613330         0.539510         0.516142
 C         3.106609        -0.821708         0.869783
 O         1.659375        -0.788163         0.940488
 H         5.075781        -1.863271        -1.116309
 H         3.973191        -1.412816        -2.476763
 H         5.434232        -0.328030        -1.644951
 H        -0.464123         0.886198         0.445538
 H         0.091434         1.141979        -1.305885
 H        -0.677411        -0.339817        -0.898353
 H         2.343479         2.216901        -0.269510
 H         1.892243         1.778519         1.319875
 H         4.629415         0.806927         0.876142
 H         3.685149        -1.372683         1.729338
