19
Iteration:   613
 C         4.567630        -1.090790        -1.459746
 C         3.496768        -0.453292        -0.580349
 O         2.254379        -0.435242        -1.187506
 C         1.522857         0.220752        -0.217526
 C        -0.034981         0.131027        -0.341552
 C         2.279240         1.474362         0.252104
 C         3.639540         0.746564         0.328560
 C         3.197151        -0.649734         0.881956
 O         1.730986        -0.653836         1.000244
 H         4.248034        -0.896015        -2.531731
 H         5.628671        -0.773900        -1.156236
 H         4.365064        -2.243374        -1.263036
 H        -0.266226         0.296569         0.711194
 H        -0.440948         0.705427        -1.125622
 H        -0.239376        -0.956409        -0.480826
 H         2.220989         2.354403        -0.382349
 H         1.910963         1.690106         1.299984
 H         4.650574         1.038500         0.626677
 H         3.822135        -1.083111         1.611176
