19
Iteration:  3963charge 0 multiplicity 1
 C         4.507910        -1.087704        -1.419129
 C         3.485061        -0.432089        -0.640926
 O         2.155435        -0.342429        -1.167219
 C         1.460579         0.187422        -0.021994
 C         0.023881         0.168116        -0.461862
 C         2.298841         1.440714         0.226043
 C         3.699180         0.696253         0.349937
 C         3.188099        -0.653639         0.889981
 O         1.819393        -0.720728         1.022986
 H         4.772244        -2.060891        -0.971199
 H         4.192030        -1.492327        -2.492588
 H         5.408711        -0.518648        -1.689196
 H        -0.644191         0.556252         0.323267
 H         0.091748         0.878813        -1.304915
 H        -0.250048        -0.824637        -0.815179
 H         2.180203         2.143997        -0.665293
 H         2.026021         1.980908         1.109781
 H         4.658959         1.045754         0.820241
 H         3.686935        -1.275744         1.612970
