19
Iteration:  4973charge 0 multiplicity 1
 C         4.552451        -1.133571        -1.396650
 C         3.495221        -0.429504        -0.613387
 O         2.201295        -0.533721        -1.150162
 C         1.467461         0.084280        -0.055481
 C         0.038080         0.172827        -0.289860
 C         2.209869         1.448461         0.005966
 C         3.526020         0.790376         0.275033
 C         3.269640        -0.482157         0.942907
 O         1.875178        -0.671790         1.036928
 H         5.494086        -0.640826        -1.257402
 H         4.512480        -2.152280        -1.215366
 H         4.280081        -0.887523        -2.396870
 H        -0.412375         0.799203         0.458354
 H        -0.110180         0.598135        -1.257164
 H        -0.493582        -0.721460        -0.373921
 H         2.229773         1.849595        -0.995092
 H         1.983915         2.074764         0.919415
 H         4.413074         1.227946         0.569509
 H         3.860804        -1.023036         1.622119
