19
Iteration:  1568
 C         4.611299        -1.023666        -1.493199
 C         3.510069        -0.458910        -0.574393
 O         2.270899        -0.095011        -1.237731
 C         1.465979         0.252832        -0.059516
 C         0.244239         0.869640        -0.642081
 C         2.382723         1.221629         0.713111
 C         3.624577         0.326508         0.742022
 C         3.010211        -1.003858         0.719126
 O         1.529417        -0.952194         0.696379
 H         5.603357        -0.558444        -1.175114
 H         4.551371        -2.194148        -1.621878
 H         4.269823        -0.689409        -2.533541
 H        -0.528660         1.208305         0.094972
 H         0.550572         1.740374        -1.213830
 H        -0.248944         0.074004        -1.331447
 H         2.487873         2.146419         0.297583
 H         2.139624         1.313966         1.782346
 H         4.538778         0.772999         1.065277
 H         3.317930        -2.026316         1.111427
