19
Iteration:  2155charge 0 multiplicity 1
 C         4.627364        -1.071776        -1.514182
 C         3.479900        -0.524810        -0.588821
 O         2.310549        -0.059341        -1.214628
 C         1.517879         0.363619        -0.154150
 C         0.138253         0.540072        -0.556037
 C         2.430988         1.303051         0.707258
 C         3.606220         0.409544         0.552411
 C         3.023953        -1.016938         0.738890
 O         1.524156        -0.793099         0.773279
 H         4.415689        -0.816457        -2.507408
 H         5.581726        -0.675578        -1.076968
 H         4.748310        -2.116557        -1.422521
 H        -0.575716         0.802484         0.256003
 H        -0.093782         1.456205        -1.251232
 H        -0.211838        -0.349221        -1.087122
 H         2.471333         2.313274         0.338069
 H         2.189525         1.384078         1.725521
 H         4.528585         0.649631         1.065544
 H         3.374428        -1.789943         1.466504
