19
Iteration:  2429charge 0 multiplicity 1
 C         4.508505        -0.972607        -1.468671
 C         3.509387        -0.416339        -0.586699
 O         2.197421        -0.182092        -1.202243
 C         1.527280         0.248065        -0.082870
 C         0.182219         0.524515        -0.580604
 C         2.399131         1.388464         0.521719
 C         3.603804         0.501136         0.583252
 C         3.043341        -0.989337         0.713905
 O         1.676077        -0.900629         0.901270
 H         3.988956        -1.636908        -2.131241
 H         5.152019        -0.218428        -1.918474
 H         5.146098        -1.648827        -0.922072
 H        -0.521513         0.883365         0.176015
 H         0.302977         1.192467        -1.474102
 H        -0.283255        -0.281588        -1.184114
 H         2.588261         2.105901        -0.270177
 H         1.963445         1.753142         1.437626
 H         4.530710         0.706037         1.129691
 H         3.551201        -1.691928         1.451860
