19
Iteration:   190
 C         4.526894        -1.149216        -1.405675
 C         3.520887        -0.403034        -0.611292
 O         2.133232        -0.586215        -1.010958
 C         1.454568         0.036254        -0.010953
 C        -0.004983         0.088449        -0.377153
 C         2.112015         1.433845        -0.091042
 C         3.508427         0.939554         0.134077
 C         3.374329        -0.425022         0.899717
 O         2.036861        -0.645527         1.240429
 H         4.048596        -2.118338        -1.572904
 H         4.711817        -0.627431        -2.368544
 H         5.465851        -1.278768        -0.828398
 H        -0.716936         0.470174         0.325453
 H        -0.139720         0.628987        -1.349013
 H        -0.288705        -0.918414        -0.630856
 H         1.863732         1.845436        -1.082824
 H         1.547534         2.052783         0.626558
 H         4.412394         1.454664        -0.056116
 H         4.161105        -0.803750         1.512793
