19
Iteration:  1923charge 0 multiplicity 1
 C         4.661267        -1.034441        -1.437896
 C         3.501742        -0.574963        -0.562814
 O         2.416439        -0.087375        -1.323697
 C         1.486474         0.316271        -0.185051
 C        -0.001211         0.687274        -0.376429
 C         2.359721         1.307196         0.597333
 C         3.622044         0.368626         0.610402
 C         2.977452        -1.020403         0.792434
 O         1.591558        -0.813441         0.644953
 H         4.388365        -1.699614        -2.307175
 H         5.329993        -0.133277        -1.808659
 H         5.323418        -1.699325        -0.796119
 H        -0.326288         0.721078         0.729983
 H        -0.206227         1.648517        -0.870216
 H        -0.552710        -0.247453        -0.848114
 H         2.331922         2.249482         0.053402
 H         2.183902         1.545594         1.611843
 H         4.536716         0.612845         1.141014
 H         3.255056        -1.929700         1.358564
