19
Iteration:  3580charge 0 multiplicity 1
 C         4.593672        -1.066743        -1.319926
 C         3.421791        -0.458770        -0.674376
 O         2.165123        -0.345231        -1.223653
 C         1.448350         0.149794        -0.044557
 C         0.005374         0.300116        -0.331300
 C         2.341289         1.435070         0.122725
 C         3.625975         0.685773         0.323460
 C         3.250358        -0.775343         0.855548
 O         1.792158        -0.704617         1.040060
 H         5.524847        -0.876302        -0.733406
 H         4.401270        -2.134558        -1.412679
 H         4.692412        -0.556380        -2.315479
 H        -0.682529         0.585880         0.489307
 H        -0.076001         0.875889        -1.229440
 H        -0.512818        -0.669502        -0.425388
 H         2.322141         1.960121        -0.827922
 H         1.971956         2.041491         0.913037
 H         4.681362         1.097115         0.504088
 H         3.801358        -1.515522         1.477058
