19
Iteration:  1734charge 0 multiplicity 1
 C         4.679039        -1.019710        -1.491268
 C         3.468709        -0.480458        -0.554227
 O         2.293333         0.003233        -1.130025
 C         1.541514         0.345874        -0.087480
 C         0.098214         0.617202        -0.456452
 C         2.523218         1.344548         0.499260
 C         3.585597         0.309523         0.809006
 C         2.935947        -1.057777         0.702008
 O         1.508479        -0.910452         0.570094
 H         4.763945        -2.206152        -1.532767
 H         4.557833        -0.685176        -2.540087
 H         5.716797        -0.601232        -1.189835
 H        -0.633783         0.642843         0.397735
 H        -0.050002         1.617123        -1.079195
 H        -0.275668        -0.210753        -1.084042
 H         2.769179         2.016003        -0.210777
 H         2.162600         1.855092         1.344269
 H         4.574382         0.536160         1.171125
 H         3.273600        -1.909039         1.306288
