19
Iteration:  3223charge 0 multiplicity 1
 C         4.571168        -1.177233        -1.472967
 C         3.506688        -0.442952        -0.623223
 O         2.248073        -0.399128        -1.240742
 C         1.446969         0.202497        -0.150745
 C        -0.072609         0.297402        -0.430775
 C         2.325269         1.439020         0.414836
 C         3.637044         0.726580         0.368398
 C         3.238591        -0.675639         0.849564
 O         1.763664        -0.692186         1.015616
 H         5.281662        -0.358381        -1.765426
 H         4.916126        -2.119520        -0.932097
 H         4.139816        -1.655852        -2.338644
 H        -0.610849         0.542616         0.515924
 H        -0.217104         0.804520        -1.329558
 H        -0.416363        -0.701347        -0.740399
 H         2.259513         2.367628        -0.181098
 H         2.063327         1.613760         1.433665
 H         4.518790         1.207947         0.670168
 H         3.726110        -1.423894         1.485701
