19
Iteration:  2774charge 0 multiplicity 1
 C         4.648840        -1.197803        -1.444823
 C         3.536850        -0.480866        -0.626918
 O         2.321316        -0.204757        -1.325045
 C         1.487729         0.220825        -0.229407
 C        -0.014858         0.530422        -0.331373
 C         2.244929         1.414024         0.533220
 C         3.606633         0.563708         0.641559
 C         3.111646        -0.858273         0.780653
 O         1.704797        -0.823321         0.739201
 H         4.438985        -0.855056        -2.442083
 H         5.634091        -0.677660        -1.249133
 H         4.598018        -2.225741        -1.154124
 H        -0.293647         1.035074         0.672454
 H        -0.071050         1.353792        -1.171918
 H        -0.767792        -0.215498        -0.663143
 H         2.252912         2.325656        -0.012016
 H         1.817816         1.538342         1.513498
 H         4.610737         0.778060         1.224109
 H         3.586353        -1.666525         1.443378
