19
Iteration:  4056charge 0 multiplicity 1
 C         4.601669        -1.003146        -1.415112
 C         3.448165        -0.485767        -0.654889
 O         2.090149        -0.441230        -1.196845
 C         1.442971         0.179233         0.019881
 C        -0.007703         0.193743        -0.412124
 C         2.389054         1.437854         0.074986
 C         3.680243         0.679492         0.378543
 C         3.235917        -0.649498         0.874318
 O         1.753857        -0.698254         1.107147
 H         4.156339        -1.391682        -2.404048
 H         5.489060        -0.091079        -1.654392
 H         5.176294        -1.717858        -0.733287
 H        -0.586262         0.600756         0.472887
 H        -0.142445         0.795701        -1.300465
 H        -0.360027        -0.841654        -0.553913
 H         2.381594         1.773690        -0.947980
 H         2.062116         2.289994         0.708150
 H         4.627923         1.251844         0.718891
 H         3.884059        -1.415937         1.428990
