19
Iteration:  1922charge 0 multiplicity 1
 C         4.662503        -1.032273        -1.435591
 C         3.509060        -0.572460        -0.566343
 O         2.414604        -0.090768        -1.327075
 C         1.493790         0.312466        -0.171689
 C        -0.001499         0.696743        -0.374996
 C         2.362437         1.303596         0.588937
 C         3.615506         0.375053         0.613153
 C         2.978212        -1.022002         0.801944
 O         1.588748        -0.821872         0.635966
 H         4.353690        -1.683019        -2.315877
 H         5.314998        -0.169489        -1.769625
 H         5.310591        -1.705780        -0.796655
 H        -0.343740         0.723723         0.732601
 H        -0.222532         1.672334        -0.870373
 H        -0.551582        -0.243873        -0.840522
 H         2.312256         2.227945         0.052347
 H         2.194947         1.553030         1.603170
 H         4.543477         0.650849         1.132595
 H         3.276578        -1.907671         1.325346
