19
Iteration:  3269
 C         4.550860        -1.048998        -1.480301
 C         3.475788        -0.481434        -0.573413
 O         2.234645        -0.334286        -1.185131
 C         1.423738         0.211036        -0.010571
 C        -0.004437         0.253018        -0.389616
 C         2.368233         1.456457         0.140860
 C         3.659343         0.650012         0.468607
 C         3.184328        -0.709214         0.847813
 O         1.770682        -0.771015         0.996725
 H         5.321530        -0.248859        -1.453346
 H         4.618151        -2.082388        -1.144353
 H         4.122060        -1.232891        -2.520459
 H        -0.620341         0.617738         0.473091
 H        -0.249095         0.903536        -1.240537
 H        -0.461868        -0.623225        -0.707640
 H         2.450876         1.888695        -0.840896
 H         2.026936         2.131196         0.830761
 H         4.675510         1.071659         0.719454
 H         3.822628        -1.463661         1.543875
