19
Iteration:  4935
 C         4.502657        -1.272250        -1.393312
 C         3.511159        -0.470670        -0.642409
 O         2.204026        -0.425699        -1.166452
 C         1.454913         0.219719        -0.088500
 C         0.041226        -0.093803        -0.380210
 C         2.199091         1.542498         0.198872
 C         3.581928         0.799740         0.223590
 C         3.259346        -0.505747         0.830360
 O         1.879742        -0.517411         1.105148
 H         5.393787        -1.543521        -0.777994
 H         4.165155        -2.362594        -1.643936
 H         4.718640        -0.826167        -2.410169
 H        -0.600857         0.508670         0.335762
 H        -0.171578         0.380467        -1.397900
 H        -0.215569        -1.183386        -0.243847
 H         1.988672         2.465359        -0.416476
 H         1.994986         1.982604         1.189252
 H         4.516958         1.368817         0.611506
 H         3.952436        -1.075619         1.434652
