19
Iteration:   194
 C         4.529572        -1.147816        -1.410655
 C         3.515052        -0.406464        -0.597543
 O         2.153697        -0.618510        -1.021574
 C         1.441305         0.003622        -0.042128
 C        -0.037395         0.099902        -0.369935
 C         2.119360         1.450816        -0.084321
 C         3.509210         0.928692         0.149059
 C         3.370106        -0.388910         0.881820
 O         2.039106        -0.639880         1.229023
 H         4.071776        -2.198692        -1.471266
 H         4.688079        -0.686128        -2.419677
 H         5.501763        -1.227818        -0.865711
 H        -0.694351         0.539375         0.417522
 H        -0.101087         0.687548        -1.289604
 H        -0.358888        -0.939308        -0.624315
 H         1.874978         1.934966        -1.015395
 H         1.618987         2.026453         0.747811
 H         4.453790         1.501683         0.078770
 H         4.185466        -0.736281         1.503199
