19
Iteration:  4277
 C         4.581216        -1.161372        -1.416508
 C         3.527178        -0.469380        -0.648571
 O         2.184607        -0.398065        -1.180844
 C         1.462514         0.155751        -0.041171
 C        -0.046593         0.084790        -0.242041
 C         2.284256         1.540331         0.069033
 C         3.560747         0.777156         0.313583
 C         3.213784        -0.601776         0.863956
 O         1.875507        -0.658440         1.035779
 H         5.153435        -1.778365        -0.727857
 H         4.167543        -2.071479        -1.867715
 H         5.203419        -0.626902        -2.221641
 H        -0.648180         0.488847         0.542682
 H        -0.285936         0.559960        -1.184846
 H        -0.308536        -0.902966        -0.423311
 H         2.149078         2.127583        -0.838740
 H         1.926330         2.226714         0.757922
 H         4.520377         1.286382         0.512883
 H         3.849918        -1.058455         1.674945
