19
Iteration:  2271
 C         4.506612        -1.012489        -1.510150
 C         3.470159        -0.509496        -0.576978
 O         2.319228        -0.070800        -1.185496
 C         1.502897         0.282803        -0.035386
 C         0.116282         0.485977        -0.576905
 C         2.446906         1.401361         0.535373
 C         3.619312         0.366780         0.674457
 C         2.996693        -0.983236         0.795699
 O         1.615369        -0.839646         0.749019
 H         5.417271        -0.459463        -1.230112
 H         4.505821        -2.117672        -1.779675
 H         4.501116        -0.580380        -2.566847
 H        -0.682712         0.882310         0.038397
 H         0.286157         1.252564        -1.262644
 H        -0.083631        -0.425428        -1.123397
 H         2.602541         2.240477        -0.240105
 H         2.243357         1.993965         1.511626
 H         4.577853         0.431823         1.191228
 H         3.449316        -1.784339         1.451800
