19
Iteration:  1333charge 0 multiplicity 1
 C         4.553843        -1.068665        -1.426344
 C         3.561808        -0.422533        -0.612415
 O         2.300307        -0.105808        -1.295641
 C         1.482493         0.251910        -0.187871
 C         0.089969         0.814823        -0.465178
 C         2.377288         1.249623         0.632251
 C         3.609428         0.431949         0.741757
 C         3.035329        -0.961197         0.740722
 O         1.611181        -1.019104         0.667965
 H         4.159696        -1.654546        -2.352239
 H         5.299748        -0.340753        -1.745988
 H         5.190805        -1.820083        -0.904888
 H        -0.422957         0.892001         0.490641
 H         0.169950         1.757383        -0.881112
 H        -0.361861         0.193196        -1.277036
 H         2.651752         2.156299         0.070877
 H         2.067968         1.563915         1.623223
 H         4.393615         0.772565         1.428948
 H         3.423959        -1.830206         1.180883
