19
Iteration:  2358
 C         4.650302        -1.051138        -1.296244
 C         3.488382        -0.461186        -0.612859
 O         2.207822        -0.081538        -1.359867
 C         1.442104         0.238457        -0.070199
 C         0.018878         0.621334        -0.431217
 C         2.393968         1.314532         0.486728
 C         3.624440         0.441346         0.628100
 C         3.065690        -1.029908         0.685492
 O         1.709762        -0.864642         0.791128
 H         4.887810        -2.137368        -1.015097
 H         4.384575        -0.875045        -2.412502
 H         5.565952        -0.366273        -1.122113
 H        -0.554663         0.815277         0.475053
 H         0.095992         1.400064        -1.120767
 H        -0.462843        -0.132925        -1.071348
 H         2.502898         2.049371        -0.371152
 H         2.165952         1.797996         1.488025
 H         4.617501         0.723641         0.911047
 H         3.587229        -1.771000         1.331327
