19
Iteration:  1770charge 0 multiplicity 1
 C         4.666367        -1.040997        -1.368476
 C         3.525005        -0.487487        -0.666452
 O         2.309584        -0.115820        -1.342046
 C         1.495288         0.305177        -0.213385
 C         0.096348         0.750058        -0.427777
 C         2.387099         1.196845         0.710087
 C         3.577435         0.398608         0.642020
 C         3.004272        -0.994493         0.668525
 O         1.563112        -0.854100         0.738102
 H         4.492721        -2.146439        -1.687357
 H         5.031357        -0.377757        -2.198997
 H         5.372951        -1.088315        -0.487183
 H        -0.237745         1.034487         0.589769
 H         0.162625         1.679087        -1.002745
 H        -0.565332         0.039543        -0.943719
 H         2.396561         2.265692         0.409143
 H         1.877220         0.996947         1.624526
 H         4.602326         0.714519         0.832883
 H         3.559375        -1.883980         1.054262
