19
Iteration:  4125charge 0 multiplicity 1
 C         4.500270        -1.177634        -1.392059
 C         3.498912        -0.421518        -0.585785
 O         2.188819        -0.373261        -1.149866
 C         1.468155         0.158581        -0.051147
 C         0.030858         0.199389        -0.384029
 C         2.232908         1.466728         0.162965
 C         3.612268         0.763590         0.320972
 C         3.326014        -0.631215         0.835765
 O         1.809218        -0.726290         0.993875
 H         4.325254        -0.937793        -2.462453
 H         5.466268        -0.788127        -1.028038
 H         4.432433        -2.255511        -1.101020
 H        -0.590867         0.603166         0.475676
 H        -0.268819         0.802120        -1.316208
 H        -0.384667        -0.864817        -0.524447
 H         2.262594         1.942527        -0.905520
 H         1.961006         2.172399         0.936797
 H         4.515606         1.128821         0.732866
 H         3.965885        -1.254515         1.490010
