19
Iteration:   412charge 0 multiplicity 1
 C         4.543219        -1.156988        -1.384045
 C         3.536068        -0.365011        -0.615050
 O         2.206813        -0.443904        -1.148050
 C         1.433063         0.033480         0.000622
 C        -0.007162         0.155764        -0.306025
 C         2.186382         1.429760        -0.001523
 C         3.557918         0.828426         0.186852
 C         3.305675        -0.502452         0.899849
 O         1.891128        -0.733107         1.121257
 H         3.944342        -1.669765        -2.208384
 H         5.238613        -0.379115        -1.784430
 H         5.058531        -1.860894        -0.727180
 H        -0.648550         0.600867         0.451196
 H        -0.132932         0.900836        -1.076067
 H        -0.347752        -0.829350        -0.611753
 H         2.016821         1.814105        -1.042310
 H         1.834970         1.969114         0.896090
 H         4.437589         1.408020         0.399852
 H         4.058316        -0.951227         1.451264
