19
Iteration:  4190charge 0 multiplicity 1
 C         4.563342        -1.132223        -1.438476
 C         3.482922        -0.508461        -0.580783
 O         2.182903        -0.494336        -1.231135
 C         1.469925         0.102700        -0.150145
 C        -0.011112         0.216768        -0.310017
 C         2.257888         1.523673         0.144370
 C         3.567716         0.752199         0.335525
 C         3.304068        -0.574862         0.959700
 O         1.809399        -0.673867         1.027747
 H         5.382980        -0.384020        -1.749922
 H         5.205033        -1.943947        -0.950565
 H         3.971934        -1.414612        -2.387529
 H        -0.475074         0.599090         0.617670
 H        -0.197795         0.925548        -1.156842
 H        -0.457189        -0.782126        -0.273648
 H         2.357923         2.163853        -0.823534
 H         1.904336         2.022778         1.004813
 H         4.492558         1.340203         0.417346
 H         4.003751        -1.149397         1.714799
