19
Iteration:  1843charge 0 multiplicity 1
 C         4.557632        -0.991114        -1.573248
 C         3.469673        -0.536755        -0.634174
 O         2.372034        -0.106023        -1.223785
 C         1.517637         0.383029        -0.156614
 C         0.100085         0.476946        -0.582772
 C         2.501431         1.374321         0.720652
 C         3.605329         0.341922         0.730827
 C         2.946349        -1.000753         0.810222
 O         1.536566        -0.774266         0.709655
 H         4.074121        -0.910942        -2.591349
 H         5.301861        -0.250067        -1.531271
 H         5.037613        -1.980536        -1.372506
 H        -0.521683         0.744249         0.330588
 H        -0.030616         1.314033        -1.412957
 H        -0.118053        -0.532369        -0.968606
 H         2.991239         2.264315         0.382139
 H         2.150380         1.522164         1.761569
 H         4.578109         0.558600         1.201196
 H         3.298775        -1.963725         1.319443
