19
Iteration:  3712charge 0 multiplicity 1
 C         4.606299        -1.150885        -1.422881
 C         3.520571        -0.478276        -0.569086
 O         2.249094        -0.407344        -1.228294
 C         1.500148         0.219884        -0.172683
 C        -0.050107         0.165123        -0.241393
 C         2.317400         1.496425         0.214773
 C         3.592185         0.678297         0.346234
 C         3.196246        -0.671546         0.860902
 O         1.728102        -0.628542         0.952185
 H         5.001146        -2.015555        -0.837616
 H         4.009872        -1.336763        -2.426691
 H         5.455172        -0.415069        -1.661547
 H        -0.369618         0.713806         0.675066
 H        -0.482217         0.645810        -1.132185
 H        -0.278163        -0.879715        -0.412247
 H         2.245004         2.308316        -0.557165
 H         2.128927         1.841691         1.168996
 H         4.467391         1.178447         0.559560
 H         3.678832        -1.324768         1.527097
