19
Iteration:  2680
 C         4.508235        -0.989775        -1.534760
 C         3.504752        -0.518681        -0.559808
 O         2.317585        -0.294999        -1.251304
 C         1.519430         0.233302        -0.084300
 C         0.081438         0.555018        -0.493391
 C         2.349483         1.351612         0.470590
 C         3.613103         0.563094         0.606861
 C         3.105673        -0.877043         0.876585
 O         1.637646        -0.857999         0.799794
 H         4.596749        -0.092342        -2.127027
 H         5.511873        -1.043067        -1.083486
 H         4.148094        -1.946623        -1.920526
 H        -0.437279         0.731571         0.430610
 H         0.175961         1.338661        -1.167763
 H        -0.237764        -0.310126        -1.070716
 H         2.412210         2.100338        -0.400052
 H         1.812559         1.777242         1.389601
 H         4.590754         0.969041         0.965702
 H         3.639338        -1.646686         1.502515
