19
Iteration:  2915charge 0 multiplicity 1
 C         4.658077        -1.105457        -1.349935
 C         3.431873        -0.505767        -0.657122
 O         2.244560        -0.186705        -1.301167
 C         1.466865         0.286271        -0.175500
 C        -0.015042         0.496000        -0.391835
 C         2.358731         1.408875         0.506958
 C         3.585590         0.568912         0.470881
 C         3.154793        -0.859311         0.806677
 O         1.742933        -0.855420         0.838797
 H         5.563203        -0.665305        -0.977615
 H         4.900401        -2.207343        -1.253466
 H         4.571828        -1.155849        -2.442141
 H        -0.418328         0.688557         0.605307
 H        -0.487083         1.146534        -1.170915
 H        -0.494828        -0.422384        -0.743952
 H         2.394724         2.289514        -0.057532
 H         1.964847         1.497053         1.486317
 H         4.574634         0.928337         0.780897
 H         3.622256        -1.647347         1.318185
