19
Iteration:   360
 C         4.632910        -1.037156        -1.391455
 C         3.502438        -0.511266        -0.611994
 O         2.141465        -0.500135        -1.175243
 C         1.395460         0.174302        -0.062755
 C        -0.038292        -0.049232        -0.221959
 C         2.287975         1.466980         0.027492
 C         3.652179         0.743517         0.155991
 C         3.248373        -0.570163         0.939187
 O         1.834856        -0.499007         1.062684
 H         4.746475        -0.415565        -2.332718
 H         5.564843        -1.012891        -0.773519
 H         4.398953        -2.127387        -1.575900
 H        -0.616387         0.322264         0.596392
 H        -0.523411         0.467771        -1.065383
 H        -0.276604        -1.090678        -0.272582
 H         2.169540         2.005865        -0.955649
 H         2.072018         2.094887         0.834662
 H         4.559112         1.338316         0.255126
 H         3.795932        -0.948679         1.757843
