19
Iteration:  2510charge 0 multiplicity 1
 C         4.620462        -1.022708        -1.407248
 C         3.550055        -0.511997        -0.578030
 O         2.219694        -0.083832        -1.291565
 C         1.496212         0.258093        -0.111614
 C        -0.038084         0.468490        -0.428378
 C         2.496280         1.396337         0.369449
 C         3.573358         0.468610         0.627735
 C         3.067399        -0.916874         0.827065
 O         1.645747        -0.909206         0.781958
 H         4.343782        -0.682605        -2.425490
 H         5.505245        -0.517742        -1.241953
 H         4.707872        -2.101208        -1.264958
 H        -0.546228         0.711995         0.545214
 H        -0.135653         1.412583        -1.000534
 H        -0.323709        -0.557137        -0.782625
 H         2.628695         2.097910        -0.446427
 H         2.328819         1.931946         1.310285
 H         4.557941         0.767302         1.059495
 H         3.575188        -1.608142         1.483069
