19
Iteration:  4989
 C         4.635622        -1.051255        -1.444022
 C         3.544627        -0.556525        -0.532555
 O         2.205144        -0.622288        -1.159171
 C         1.453685         0.120345        -0.153516
 C        -0.039775         0.258141        -0.261243
 C         2.184129         1.466495         0.015127
 C         3.591631         0.871152         0.255950
 C         3.246853        -0.615321         0.872517
 O         1.804694        -0.656663         1.137828
 H         5.607894        -0.492650        -1.254002
 H         4.866555        -2.203408        -1.295607
 H         4.535322        -1.007097        -2.611921
 H        -0.262504         0.888071         0.674009
 H        -0.250984         0.921441        -1.191131
 H        -0.474347        -0.817455        -0.243915
 H         2.048947         2.021309        -0.938287
 H         1.660617         2.007382         0.789167
 H         4.543143         1.532590         0.342731
 H         3.849644        -1.064198         1.729410
