19
Iteration:  2874charge 0 multiplicity 1
 C         4.634186        -1.028699        -1.520301
 C         3.550983        -0.517331        -0.555027
 O         2.265323        -0.244440        -1.240010
 C         1.472534         0.270100        -0.128323
 C         0.014330         0.531081        -0.415729
 C         2.352929         1.406358         0.366396
 C         3.590553         0.536201         0.580964
 C         3.087973        -0.876394         0.858092
 O         1.677631        -0.908790         0.842695
 H         5.428424        -0.253727        -1.573562
 H         4.918078        -1.942996        -0.958208
 H         4.115744        -1.110067        -2.432852
 H        -0.275616         0.655684         0.672013
 H        -0.129684         1.332728        -1.184948
 H        -0.602963        -0.322904        -0.929342
 H         2.586006         2.109763        -0.439794
 H         2.043458         1.883838         1.292558
 H         4.425191         1.052086         0.948662
 H         3.644022        -1.567888         1.404500
