19
Iteration:  3674
 C         4.481695        -1.160563        -1.422563
 C         3.509033        -0.439307        -0.625158
 O         2.202635        -0.382343        -1.148034
 C         1.426358         0.146590        -0.004670
 C         0.001006         0.212392        -0.496213
 C         2.305194         1.493207         0.241500
 C         3.564958         0.752832         0.307188
 C         3.261744        -0.642907         0.840599
 O         1.840884        -0.714814         1.069493
 H         4.883771        -2.082300        -0.938585
 H         4.040364        -1.522880        -2.296509
 H         5.394595        -0.577771        -1.707244
 H        -0.731652         0.464016         0.228663
 H         0.074736         0.845427        -1.403974
 H        -0.295129        -0.823092        -0.672420
 H         2.452530         2.209041        -0.557341
 H         2.082324         2.033753         1.246168
 H         4.550641         1.204352         0.567016
 H         3.933290        -1.291778         1.388929
