19
Iteration:  1250charge 0 multiplicity 1
 C         4.609960        -1.008658        -1.492983
 C         3.554224        -0.499853        -0.553794
 O         2.332209        -0.062679        -1.238614
 C         1.516869         0.273804        -0.180528
 C         0.150778         0.634116        -0.479223
 C         2.400457         1.310569         0.582829
 C         3.611385         0.397484         0.661902
 C         2.962025        -0.968729         0.769372
 O         1.533383        -0.902587         0.715182
 H         4.879365        -0.126853        -1.982665
 H         5.534493        -1.469613        -1.020685
 H         4.045996        -1.652264        -2.135531
 H        -0.400055         0.873786         0.451037
 H         0.071317         1.379597        -1.309414
 H        -0.323310        -0.367114        -0.715030
 H         2.625587         2.255101        -0.000408
 H         1.880757         1.452805         1.575974
 H         4.502023         0.522574         1.237874
 H         3.346534        -1.839422         1.251950
