19
Iteration:  4798charge 0 multiplicity 1
 C         4.459036        -1.191681        -1.433360
 C         3.529102        -0.459050        -0.566025
 O         2.286729        -0.437086        -1.163478
 C         1.487827         0.184255        -0.087695
 C        -0.050634         0.065204        -0.341020
 C         2.207978         1.483866         0.137595
 C         3.586562         0.830936         0.269648
 C         3.322404        -0.572121         0.896338
 O         1.824005        -0.622908         1.035417
 H         5.527455        -0.913868        -1.316084
 H         4.403109        -2.311530        -1.189547
 H         4.165164        -1.119993        -2.516655
 H        -0.609546         0.435129         0.504006
 H        -0.358489         0.561945        -1.240930
 H        -0.146418        -1.039368        -0.300131
 H         2.151898         2.164830        -0.654479
 H         1.878327         2.097111         0.976691
 H         4.557149         1.460522         0.299472
 H         3.841795        -1.217658         1.663740
