19
Iteration:  2260charge 0 multiplicity 1
 C         4.539355        -0.983059        -1.508790
 C         3.433803        -0.566815        -0.600469
 O         2.275445        -0.129309        -1.225999
 C         1.506142         0.330764        -0.079567
 C         0.138893         0.549262        -0.648505
 C         2.478112         1.324282         0.631813
 C         3.622537         0.451952         0.664221
 C         3.018762        -0.975613         0.766146
 O         1.614070        -0.837895         0.813245
 H         5.500617        -0.524489        -1.212536
 H         4.820120        -2.079493        -1.431614
 H         4.099169        -0.655077        -2.490185
 H        -0.446394         0.712754         0.243737
 H         0.138438         1.295172        -1.381058
 H        -0.230665        -0.385034        -1.074545
 H         2.744171         2.189879        -0.064976
 H         2.045861         1.591461         1.667092
 H         4.564303         0.890003         0.998816
 H         3.358773        -1.880958         1.327325
