19
Iteration:   885
 C         4.547308        -1.165638        -1.481793
 C         3.538703        -0.430469        -0.600560
 O         2.210035        -0.199650        -1.169866
 C         1.445485         0.127343        -0.097513
 C         0.027273         0.436163        -0.474625
 C         2.262293         1.427000         0.379254
 C         3.637336         0.684490         0.522937
 C         3.182785        -0.807744         0.818371
 O         1.784802        -0.899986         0.842680
 H         4.209780        -2.169686        -1.386714
 H         4.632048        -0.850849        -2.443047
 H         5.461075        -1.101110        -0.856417
 H        -0.356682         0.958972         0.415930
 H         0.157371         1.257200        -1.197317
 H        -0.420982        -0.511535        -0.878964
 H         2.185574         2.142508        -0.449674
 H         1.961513         2.049742         1.324893
 H         4.513222         1.139663         0.989025
 H         3.728624        -1.331243         1.598087
