19
Iteration:  3110
 C         4.512510        -1.068021        -1.486526
 C         3.438543        -0.530056        -0.645318
 O         2.216775        -0.313628        -1.186923
 C         1.456203         0.234101         0.034302
 C         0.025612         0.347334        -0.504527
 C         2.317355         1.379730         0.354434
 C         3.620581         0.678369         0.535054
 C         3.241292        -0.768978         0.794712
 O         1.775736        -0.723882         0.948971
 H         4.373221        -1.383512        -2.493385
 H         5.396048        -0.448035        -1.752191
 H         4.877735        -2.071038        -1.063246
 H        -0.769354         0.534537         0.219711
 H         0.270524         0.919069        -1.397825
 H        -0.303023        -0.523603        -1.069978
 H         2.189421         2.041782        -0.552266
 H         2.127002         2.022159         1.355040
 H         4.610948         1.098390         0.751205
 H         3.682537        -1.608138         1.510910
