19
Iteration:  2161
 C         4.677800        -1.073386        -1.506322
 C         3.554614        -0.550133        -0.576526
 O         2.305157        -0.048341        -1.232795
 C         1.511713         0.363944        -0.163163
 C         0.079761         0.564089        -0.517731
 C         2.400788         1.315393         0.666619
 C         3.587097         0.378811         0.552581
 C         2.938215        -1.022628         0.745024
 O         1.573613        -0.760355         0.775236
 H         4.581658        -0.732591        -2.599299
 H         5.612450        -0.675849        -1.129108
 H         4.588113        -2.217152        -1.427785
 H        -0.521312         0.651177         0.403823
 H        -0.054495         1.352075        -1.245226
 H        -0.123796        -0.456716        -0.966794
 H         2.514808         2.426145         0.383567
 H         2.218757         1.323941         1.828515
 H         4.523292         0.659760         1.043447
 H         3.277916        -1.849414         1.292464
