19
Iteration:  1499charge 0 multiplicity 1
 C         4.626288        -1.098532        -1.290597
 C         3.444416        -0.473849        -0.657144
 O         2.346561         0.057296        -1.210580
 C         1.498372         0.406867        -0.040517
 C         0.008168         0.632483        -0.509672
 C         2.629495         1.343823         0.615982
 C         3.574660         0.257343         0.714842
 C         2.953062        -1.069659         0.605411
 O         1.514340        -0.908588         0.591788
 H         5.412069        -0.698710        -0.727202
 H         4.615796        -2.213620        -1.570404
 H         4.787909        -0.642805        -2.290440
 H        -0.592517         0.635532         0.397464
 H        -0.146361         1.613367        -1.046355
 H        -0.241992        -0.191727        -1.085729
 H         2.786972         2.159670        -0.169617
 H         2.458843         1.786502         1.621805
 H         4.551541         0.373071         1.254776
 H         3.453795        -1.930521         0.924686
