19
Iteration:  3566charge 0 multiplicity 1
 C         4.586323        -1.157947        -1.427631
 C         3.505028        -0.456873        -0.572061
 O         2.169962        -0.407114        -1.208204
 C         1.462321         0.171916        -0.088676
 C        -0.008608         0.308438        -0.355635
 C         2.279358         1.405044         0.225586
 C         3.644845         0.725265         0.351874
 C         3.189277        -0.634099         0.821186
 O         1.802974        -0.745318         1.018905
 H         5.603051        -0.871135        -0.960511
 H         4.597023        -2.257521        -1.272807
 H         4.522211        -0.780894        -2.579490
 H        -0.383864         0.890764         0.411305
 H        -0.201392         0.949405        -1.199655
 H        -0.415487        -0.630186        -0.592071
 H         2.264276         2.069630        -0.564516
 H         2.018620         1.981072         1.136891
 H         4.466793         1.332777         0.534985
 H         3.741083        -1.341792         1.340724
