19
Iteration:  4188
 C         4.562738        -1.142452        -1.442157
 C         3.488557        -0.525876        -0.576402
 O         2.181399        -0.495136        -1.241285
 C         1.465478         0.113235        -0.156462
 C        -0.021351         0.206895        -0.295048
 C         2.258672         1.521966         0.143468
 C         3.566104         0.777321         0.338368
 C         3.315678        -0.582031         0.964463
 O         1.796681        -0.661343         1.017095
 H         5.390468        -0.426611        -1.751507
 H         5.278120        -1.922893        -0.946453
 H         4.020865        -1.443983        -2.367654
 H        -0.460923         0.590403         0.604379
 H        -0.173254         0.872952        -1.122587
 H        -0.388610        -0.771968        -0.279707
 H         2.364634         2.226302        -0.688364
 H         1.959551         1.977309         1.051551
 H         4.462895         1.350370         0.403524
 H         3.947013        -1.132657         1.648277
