19
Iteration:    80charge 0 multiplicity 1
 C         4.612248        -1.092307        -1.308435
 C         3.407028        -0.473318        -0.672509
 O         2.077084        -0.675139        -1.048497
 C         1.446812         0.032967         0.005278
 C        -0.047688         0.028296        -0.313482
 C         2.061317         1.469591         0.028875
 C         3.525418         0.902261        -0.007107
 C         3.431362        -0.418462         0.735283
 O         2.089157        -0.524819         1.247586
 H         5.202675        -0.409332        -1.946586
 H         5.291569        -1.517949        -0.500302
 H         4.394456        -1.986268        -1.973229
 H        -0.609836         0.509845         0.493128
 H        -0.162705         0.620115        -1.201642
 H        -0.486147        -0.951522        -0.494186
 H         1.733963         1.983773        -0.926416
 H         1.779091         2.003161         0.913804
 H         4.436497         1.542986         0.058517
 H         4.210283        -0.738362         1.466779
