19
Iteration:  2056
 C         4.690346        -1.045417        -1.316529
 C         3.450293        -0.508064        -0.648875
 O         2.252066         0.010091        -1.333275
 C         1.465728         0.346761        -0.045444
 C         0.079019         0.558470        -0.456012
 C         2.525994         1.373812         0.555351
 C         3.644048         0.299859         0.623397
 C         2.933621        -1.107160         0.638174
 O         1.578422        -0.824216         0.777789
 H         4.513101        -1.878148        -1.952653
 H         5.229629        -0.149994        -1.895576
 H         5.416389        -1.220189        -0.532747
 H        -0.576687         0.814408         0.403154
 H         0.106374         1.475761        -1.165865
 H        -0.501849        -0.289383        -0.907717
 H         2.876022         2.046199        -0.244745
 H         2.129707         1.777752         1.448248
 H         4.455372         0.729671         1.242858
 H         3.270283        -2.049438         0.960652
