19
Iteration:    22charge 0 multiplicity 1
 C         4.440102        -1.083141        -1.475301
 C         3.466301        -0.350010        -0.638713
 O         2.153473        -0.584925        -1.131872
 C         1.505809         0.083269        -0.061692
 C         0.064748        -0.157810        -0.099266
 C         2.224015         1.452805        -0.304100
 C         3.572641         0.957827         0.265729
 C         3.315380        -0.429222         0.977612
 O         1.913106        -0.567305         1.243868
 H         5.405158        -0.621699        -1.510778
 H         4.492015        -2.097014        -1.194769
 H         3.986827        -1.042049        -2.422928
 H        -0.517678         0.202608         0.745577
 H        -0.289519         0.320513        -1.031633
 H        -0.066703        -1.234798        -0.246555
 H         2.336340         1.425904        -1.380239
 H         1.757154         2.411535        -0.005044
 H         4.451870         1.583466         0.345665
 H         3.999165        -0.943839         1.633114
