19
Iteration:  4445charge 0 multiplicity 1
 C         4.584952        -1.237103        -1.295988
 C         3.491316        -0.435546        -0.709369
 O         2.158972        -0.418144        -1.193850
 C         1.407339         0.178085         0.011074
 C        -0.071049         0.071090        -0.259728
 C         2.226851         1.473533         0.096178
 C         3.594426         0.824093         0.215670
 C         3.317878        -0.489760         0.768827
 O         1.946235        -0.692991         1.077517
 H         4.051775        -1.896782        -2.068853
 H         5.438835        -0.603767        -1.753203
 H         4.933702        -1.820618        -0.342637
 H        -0.868929         0.430161         0.411668
 H        -0.266536         0.600515        -1.229593
 H        -0.422680        -1.026094        -0.301288
 H         2.113279         2.070437        -0.794227
 H         1.898118         2.186653         0.831561
 H         4.509690         1.375738         0.352826
 H         3.998469        -0.899532         1.515401
