19
Iteration:   766
 C         4.605231        -1.173975        -1.456548
 C         3.560326        -0.474921        -0.672359
 O         2.254038        -0.402871        -1.217255
 C         1.488705         0.130435        -0.068723
 C         0.005174         0.369699        -0.377477
 C         2.211402         1.444209         0.374640
 C         3.544971         0.738856         0.379358
 C         3.212819        -0.656365         0.847665
 O         1.757726        -0.762590         0.910535
 H         5.635790        -0.843456        -1.141746
 H         4.590528        -2.249304        -1.220499
 H         4.409455        -1.070183        -2.593536
 H        -0.545771         0.848487         0.415152
 H         0.109828         1.177457        -1.058063
 H        -0.379739        -0.519379        -0.867954
 H         2.045385         2.401843        -0.124614
 H         1.910120         1.673106         1.500406
 H         4.386059         1.201090         0.814840
 H         3.790808        -1.263698         1.537824
