19
Iteration:   731
 C         4.502098        -1.076831        -1.405054
 C         3.422439        -0.452076        -0.584973
 O         2.225034        -0.286782        -1.258447
 C         1.434075         0.258481        -0.075818
 C        -0.023408         0.190244        -0.420155
 C         2.372398         1.474944         0.225500
 C         3.600037         0.636049         0.421441
 C         3.256181        -0.725055         0.851623
 O         1.835685        -0.766343         1.018189
 H         5.135424        -1.611249        -0.688661
 H         3.952608        -1.772319        -2.035662
 H         5.173773        -0.374661        -1.967795
 H        -0.779451         0.462994         0.360187
 H         0.018862         0.802847        -1.325986
 H        -0.407917        -0.799233        -0.833269
 H         2.378947         2.182906        -0.691718
 H         2.054555         1.929497         1.248931
 H         4.560729         1.050082         0.851189
 H         3.860091        -1.437896         1.456338
