19
Iteration:  1000
 C         4.660977        -1.017345        -1.538510
 C         3.521778        -0.497495        -0.570353
 O         2.234722        -0.316446        -1.237779
 C         1.473539         0.142643        -0.134421
 C         0.057758         0.581602        -0.554986
 C         2.261807         1.303675         0.552883
 C         3.658255         0.564281         0.571336
 C         3.129675        -0.809730         0.817088
 O         1.662948        -0.784145         0.886141
 H         5.195965        -0.234683        -2.071822
 H         5.249458        -1.874244        -0.978717
 H         4.147481        -1.668704        -2.254746
 H        -0.448013         1.115951         0.250287
 H         0.158881         1.433450        -1.150600
 H        -0.566538        -0.150662        -1.095191
 H         2.201710         2.322140         0.042461
 H         1.944807         1.451323         1.592454
 H         4.660876         0.762706         0.788842
 H         3.608297        -1.516581         1.463835
