19
Iteration:   736charge 0 multiplicity 1
 C         4.469298        -1.079587        -1.384635
 C         3.463494        -0.443915        -0.615683
 O         2.211290        -0.280251        -1.260204
 C         1.456079         0.229577        -0.109775
 C        -0.060543         0.233096        -0.440643
 C         2.356104         1.429633         0.248545
 C         3.616691         0.674688         0.423504
 C         3.234912        -0.743078         0.855286
 O         1.872593        -0.787862         1.038449
 H         5.206468        -1.467675        -0.629375
 H         3.875473        -1.918854        -1.843814
 H         5.074194        -0.369737        -1.967731
 H        -0.697891         0.531960         0.358712
 H         0.010242         0.891188        -1.329868
 H        -0.258779        -0.729674        -0.841654
 H         2.340077         2.092025        -0.552139
 H         2.047699         1.910329         1.142042
 H         4.469271         1.196547         0.737088
 H         3.844281        -1.401588         1.435146
