19
Iteration:   742charge 0 multiplicity 1
 C         4.469068        -1.113907        -1.363285
 C         3.504493        -0.404795        -0.620619
 O         2.182263        -0.278397        -1.242756
 C         1.488629         0.162427        -0.134538
 C        -0.042807         0.294477        -0.479463
 C         2.304254         1.364738         0.296893
 C         3.647915         0.720757         0.417485
 C         3.202091        -0.746791         0.840925
 O         1.877385        -0.800477         1.048347
 H         5.288729        -1.371830        -0.692537
 H         4.088913        -2.040654        -1.760423
 H         4.856471        -0.462289        -2.214989
 H        -0.638057         0.671117         0.391532
 H        -0.226629         1.050306        -1.264065
 H        -0.199178        -0.780390        -0.813749
 H         2.335295         2.144094        -0.560932
 H         1.929540         2.013092         1.194408
 H         4.562319         1.370763         0.567727
 H         3.850161        -1.408753         1.456153
