19
Iteration:  1606
 C         4.667687        -0.969708        -1.443373
 C         3.496702        -0.559911        -0.572546
 O         2.352550         0.001883        -1.280990
 C         1.527113         0.397573        -0.131606
 C         0.067192         0.665922        -0.508167
 C         2.532259         1.262595         0.659562
 C         3.615550         0.267902         0.717968
 C         2.887307        -1.067686         0.752141
 O         1.472599        -0.866750         0.647967
 H         5.637544        -0.987834        -0.945803
 H         4.571794        -1.946117        -1.780322
 H         4.767604        -0.274964        -2.265610
 H        -0.456194         0.947248         0.397717
 H        -0.122543         1.398928        -1.331769
 H        -0.292631        -0.267738        -0.831391
 H         2.974580         2.127399         0.010808
 H         2.197956         1.596650         1.665690
 H         4.563206         0.591768         1.185150
 H         3.105024        -2.057788         1.005329
