19
Iteration:   218
 C         4.638331        -1.189652        -1.404630
 C         3.557064        -0.491843        -0.598670
 O         2.236347        -0.735296        -1.153553
 C         1.465920         0.052789        -0.137508
 C        -0.057551         0.088718        -0.185976
 C         2.145309         1.446793         0.092806
 C         3.549679         0.938560         0.091105
 C         3.294516        -0.361270         0.923774
 O         1.862338        -0.482166         1.051509
 H         4.721167        -2.243473        -1.109716
 H         4.262213        -1.067382        -2.415897
 H         5.568322        -0.651601        -1.332651
 H        -0.439275         0.448455         0.802312
 H        -0.500784         0.691730        -0.951786
 H        -0.428189        -0.977423        -0.251011
 H         1.829742         2.194741        -0.664028
 H         1.645993         1.686306         1.011706
 H         4.458589         1.599160         0.030028
 H         3.876299        -0.764085         1.821187
