19
Iteration:  4471
 C         4.552373        -1.245671        -1.391544
 C         3.537254        -0.450232        -0.615046
 O         2.225679        -0.449690        -1.198417
 C         1.468548         0.137318        -0.173906
 C         0.032382        -0.011175        -0.239797
 C         2.179851         1.503143         0.154910
 C         3.563377         0.856770         0.168845
 C         3.243790        -0.485931         0.902451
 O         1.874236        -0.589216         1.063221
 H         3.901017        -1.800307        -2.083396
 H         5.358651        -0.677011        -1.848568
 H         4.928733        -2.037226        -0.831990
 H        -0.398917         0.526986         0.676197
 H        -0.392307         0.649886        -1.064205
 H        -0.415055        -0.982565        -0.064329
 H         2.073041         2.295351        -0.602183
 H         1.804706         1.975988         1.098605
 H         4.505944         1.424966         0.279772
 H         3.795750        -1.150538         1.608453
