19
Iteration:  1712
 C         4.529076        -0.968367        -1.509940
 C         3.528665        -0.530428        -0.493685
 O         2.423781        -0.039921        -1.376462
 C         1.568095         0.337193        -0.197617
 C         0.095229         0.575804        -0.536540
 C         2.478505         1.315392         0.698059
 C         3.577096         0.292105         0.726638
 C         2.926098        -1.057903         0.784245
 O         1.538028        -0.794701         0.744457
 H         4.729078        -2.137057        -1.530672
 H         4.045709        -0.654938        -2.462239
 H         5.554801        -0.439630        -1.446487
 H        -0.602566         0.588085         0.341760
 H        -0.003115         1.610459        -1.071969
 H        -0.393066        -0.165478        -1.201858
 H         2.683163         2.158416         0.161393
 H         2.151827         1.561954         1.682124
 H         4.413714         0.463922         1.408875
 H         3.282465        -1.946337         1.246302
