19
Iteration:   141charge 0 multiplicity 1
 C         4.610642        -1.131855        -1.512638
 C         3.556844        -0.516995        -0.567078
 O         2.183488        -0.652509        -1.132557
 C         1.377126         0.158468        -0.297657
 C        -0.073831        -0.153847        -0.154014
 C         2.197309         1.476645         0.035949
 C         3.611292         0.876265         0.150749
 C         3.316761        -0.409698         1.025487
 O         1.884510        -0.379423         1.103416
 H         4.141875        -1.392146        -2.486983
 H         5.450428        -0.499429        -1.649303
 H         4.887870        -2.019213        -0.991636
 H        -0.355477         0.416378         0.776441
 H        -0.847564        -0.071941        -0.902242
 H         0.018477        -1.238529         0.152717
 H         2.099758         2.266879        -0.717145
 H         1.793109         1.950575         0.976390
 H         4.355334         1.704232         0.055927
 H         3.903117        -0.939549         1.761615
