19
Iteration:  1238charge 0 multiplicity 1
 C         4.628325        -1.038848        -1.521701
 C         3.522154        -0.512416        -0.594755
 O         2.345462        -0.110903        -1.331197
 C         1.519632         0.229020        -0.170867
 C         0.094189         0.660791        -0.460069
 C         2.289833         1.286240         0.648252
 C         3.638775         0.438754         0.725935
 C         3.006273        -0.990285         0.737861
 O         1.599562        -0.843545         0.741409
 H         5.345613        -0.333279        -1.906204
 H         5.232011        -1.779528        -0.881174
 H         4.363220        -1.625994        -2.392335
 H        -0.231403         1.242090         0.437323
 H         0.155305         1.471051        -1.204724
 H        -0.662299        -0.060447        -0.936721
 H         2.214216         2.306821         0.276513
 H         1.864846         1.333570         1.667227
 H         4.531164         0.794355         1.256049
 H         3.358450        -1.711531         1.410250
