19
Iteration:  3266
 C         4.520668        -1.057817        -1.495434
 C         3.471055        -0.492083        -0.565516
 O         2.260375        -0.344227        -1.207438
 C         1.432668         0.210291        -0.003292
 C         0.007265         0.241700        -0.393704
 C         2.377303         1.459310         0.155643
 C         3.651921         0.679307         0.478481
 C         3.178611        -0.717951         0.862684
 O         1.762990        -0.769743         0.994988
 H         5.289641        -0.262193        -1.482828
 H         4.690870        -2.154814        -1.115345
 H         4.129073        -1.189799        -2.485922
 H        -0.657198         0.741485         0.354878
 H        -0.295168         0.977443        -1.098532
 H        -0.438508        -0.711239        -0.728225
 H         2.373656         1.908002        -0.890066
 H         2.035224         2.196983         0.931219
 H         4.605819         1.091571         0.705058
 H         3.905443        -1.401252         1.428559
