19
Iteration:     5charge 0 multiplicity 1
 C         4.539534        -1.097222        -1.445798
 C         3.486993        -0.421279        -0.598309
 O         2.132905        -0.628887        -1.104702
 C         1.478822         0.055162        -0.014148
 C         0.008947        -0.098636        -0.166209
 C         2.146950         1.432425        -0.113259
 C         3.553841         0.935515         0.107813
 C         3.340639        -0.355055         0.882875
 O         1.947960        -0.518061         1.176084
 H         5.557339        -0.970071        -0.998687
 H         4.353970        -2.229453        -1.374274
 H         4.619907        -0.817123        -2.546850
 H        -0.421873         0.400991         0.718264
 H        -0.388794         0.320202        -1.075628
 H        -0.207223        -1.176883        -0.093417
 H         1.974607         1.911005        -1.093201
 H         1.733094         2.129190         0.608352
 H         4.517127         1.464091        -0.023194
 H         3.986146        -0.839390         1.590425
