19
Iteration:  4939
 C         4.487065        -1.291768        -1.389583
 C         3.503907        -0.472757        -0.641139
 O         2.237906        -0.422843        -1.142136
 C         1.453579         0.207628        -0.098535
 C        -0.006408        -0.074599        -0.399486
 C         2.212318         1.547786         0.195122
 C         3.576411         0.835137         0.220430
 C         3.254959        -0.510468         0.812411
 O         1.891717        -0.538285         1.121476
 H         5.440385        -1.356885        -0.867959
 H         4.229094        -2.282425        -1.654585
 H         4.660573        -0.838881        -2.305528
 H        -0.518612         0.505386         0.310044
 H        -0.194967         0.315294        -1.333834
 H        -0.179993        -1.115223        -0.256084
 H         1.969902         2.403437        -0.484983
 H         2.013956         2.021997         1.232239
 H         4.476446         1.271763         0.556171
 H         3.934101        -1.179694         1.426141
