19
Iteration:  2822
 C         4.596877        -1.021275        -1.503262
 C         3.464466        -0.510762        -0.604145
 O         2.219334        -0.171405        -1.248725
 C         1.464141         0.290007        -0.046659
 C         0.040270         0.459747        -0.573907
 C         2.453472         1.436398         0.472921
 C         3.638434         0.473535         0.576164
 C         3.073424        -0.947619         0.797276
 O         1.700260        -0.828521         0.956171
 H         4.843856        -0.099352        -2.171610
 H         5.564570        -1.145738        -0.967477
 H         4.183862        -1.993937        -1.887743
 H        -0.794776         0.689509         0.125378
 H        -0.093635         1.043139        -1.486918
 H        -0.208935        -0.551406        -1.049790
 H         2.566527         2.238751        -0.380392
 H         1.934842         1.842172         1.447368
 H         4.581907         0.688537         0.926156
 H         3.616403        -1.625039         1.387687
