19
Iteration:  4901charge 0 multiplicity 1
 C         4.504577        -1.184889        -1.367303
 C         3.487144        -0.469429        -0.562071
 O         2.238107        -0.430446        -1.145904
 C         1.446584         0.141737        -0.093659
 C        -0.055127        -0.004392        -0.287064
 C         2.226542         1.553923         0.018874
 C         3.644204         0.813237         0.224598
 C         3.277155        -0.512599         0.863819
 O         1.881645        -0.656332         1.074445
 H         5.192668        -1.705540        -0.665911
 H         3.873591        -1.881259        -1.954250
 H         5.180468        -0.480261        -1.972661
 H        -0.526332         0.563000         0.591814
 H        -0.491000         0.547488        -1.230423
 H        -0.550111        -0.995130        -0.370522
 H         2.264379         2.087132        -0.916524
 H         1.984117         2.053416         0.886272
 H         4.474029         1.432350         0.542891
 H         3.998900        -1.033364         1.349829
