19
Iteration:  2760
 C         4.649213        -1.130882        -1.401134
 C         3.528551        -0.484228        -0.619192
 O         2.292135        -0.143938        -1.309612
 C         1.467165         0.250435        -0.110012
 C        -0.016296         0.557269        -0.379276
 C         2.334922         1.309727         0.500814
 C         3.567531         0.567549         0.591438
 C         3.118804        -0.861428         0.757618
 O         1.682638        -0.852488         0.748336
 H         4.463061        -1.256951        -2.448569
 H         5.537039        -0.715846        -1.012715
 H         4.793568        -2.269314        -1.271960
 H        -0.384289         0.828340         0.632149
 H        -0.123115         1.327121        -1.182170
 H        -0.447135        -0.382301        -0.720384
 H         2.591454         2.125978        -0.108608
 H         1.921614         1.583629         1.457094
 H         4.431293         1.124505         0.883580
 H         3.502777        -1.672608         1.335983
