19
Iteration:   816charge 0 multiplicity 1
 C         4.607371        -0.961821        -1.413813
 C         3.458702        -0.526947        -0.624788
 O         2.205836        -0.309663        -1.300006
 C         1.480355         0.285795        -0.019719
 C         0.006278         0.265790        -0.400003
 C         2.411743         1.419131         0.253161
 C         3.608452         0.595809         0.514541
 C         3.115237        -0.865441         0.779995
 O         1.718492        -0.711466         0.994941
 H         4.776319        -0.306091        -2.257945
 H         5.605042        -0.979456        -0.891876
 H         4.391549        -2.002000        -1.659434
 H        -0.568747         0.720688         0.479882
 H        -0.212508         1.028587        -1.192319
 H        -0.147986        -0.840567        -0.649931
 H         2.430647         1.903726        -0.763150
 H         2.079804         2.158228         0.922291
 H         4.617368         0.815973         0.953998
 H         3.659743        -1.460584         1.545455
