19
Iteration:  4872
 C         4.682050        -1.071722        -1.458217
 C         3.476877        -0.496242        -0.631154
 O         2.198894        -0.619831        -1.167477
 C         1.466966         0.104143        -0.107825
 C        -0.037406         0.237694        -0.244292
 C         2.201405         1.365582         0.037141
 C         3.573185         0.765904         0.265072
 C         3.232502        -0.442083         0.955054
 O         1.816954        -0.642964         1.089988
 H         5.330860        -1.502679        -0.707710
 H         4.353324        -1.737494        -2.291311
 H         5.296256        -0.379349        -1.946554
 H        -0.268113         0.577308         0.744775
 H        -0.281118         1.029867        -0.915227
 H        -0.461566        -0.758290        -0.313965
 H         2.202139         1.966231        -1.004839
 H         1.751296         2.209156         0.787079
 H         4.449646         1.506702         0.141418
 H         3.908723        -1.027338         1.641096
