19
Iteration:  1211charge 0 multiplicity 1
 C         4.615149        -1.083777        -1.308734
 C         3.515615        -0.410226        -0.611580
 O         2.206873        -0.096612        -1.262039
 C         1.481790         0.241421        -0.121746
 C         0.070561         0.737046        -0.499847
 C         2.324102         1.295975         0.642480
 C         3.685928         0.477167         0.592393
 C         3.071598        -0.957230         0.662173
 O         1.648210        -1.023963         0.705126
 H         5.667900        -0.555979        -1.247811
 H         4.781468        -2.109211        -1.079536
 H         4.439573        -1.165941        -2.429566
 H        -0.442874         1.215748         0.310210
 H         0.163964         1.506665        -1.302324
 H        -0.453022        -0.044606        -0.957643
 H         2.292389         2.289250         0.156887
 H         2.065562         1.358065         1.693686
 H         4.623299         0.829841         0.999125
 H         3.679308        -1.756113         1.174753
