19
Iteration:  4245charge 0 multiplicity 1
 C         4.549467        -1.034518        -1.519613
 C         3.460156        -0.548177        -0.539293
 O         2.164385        -0.544887        -1.144577
 C         1.460044         0.127448        -0.175396
 C         0.002261         0.174179        -0.354635
 C         2.306197         1.422452         0.139970
 C         3.612137         0.722955         0.252678
 C         3.214162        -0.563369         0.930480
 O         1.865684        -0.563250         1.110216
 H         5.403591        -0.656777        -0.940755
 H         4.331922        -2.086400        -1.548828
 H         4.620329        -0.609408        -2.593751
 H        -0.564370         0.578224         0.471615
 H        -0.297191         0.737362        -1.238284
 H        -0.314283        -0.816828        -0.606045
 H         2.244268         2.346595        -0.477631
 H         2.071988         1.547193         1.115157
 H         4.580878         1.244249         0.431558
 H         3.873167        -0.921013         1.809367
