19
Iteration:  2669charge 0 multiplicity 1
 C         4.570460        -0.978376        -1.447635
 C         3.508199        -0.452790        -0.521338
 O         2.203651        -0.231207        -1.233791
 C         1.482558         0.204153        -0.135770
 C         0.107366         0.572070        -0.474768
 C         2.325281         1.353156         0.409468
 C         3.611331         0.532699         0.576517
 C         3.139220        -0.899166         0.836870
 O         1.722451        -0.905499         0.816794
 H         4.859167        -0.382380        -2.318910
 H         5.426435        -1.468583        -0.918752
 H         4.171823        -1.785892        -2.088234
 H        -0.632422         0.844488         0.223838
 H         0.009552         1.360929        -1.121621
 H        -0.373361        -0.306361        -0.890076
 H         2.529668         2.221186        -0.335549
 H         1.858460         1.873595         1.333991
 H         4.619400         0.810167         0.999756
 H         3.463757        -1.717201         1.544550
