19
Iteration:  4958charge 0 multiplicity 1
 C         4.494816        -1.162127        -1.402257
 C         3.524755        -0.414285        -0.557714
 O         2.157239        -0.448310        -1.180556
 C         1.453506         0.132125        -0.082484
 C        -0.062868         0.069486        -0.379415
 C         2.263112         1.445054         0.092299
 C         3.665845         0.865718         0.241575
 C         3.307024        -0.541252         0.946244
 O         1.880105        -0.672208         1.079624
 H         5.528632        -1.136441        -1.018457
 H         4.305936        -2.285619        -1.206209
 H         4.350938        -0.996464        -2.465493
 H        -0.739950         0.615009         0.295150
 H        -0.257889         0.438795        -1.397675
 H        -0.375395        -1.005741        -0.279771
 H         2.139449         2.158926        -0.793086
 H         1.841043         2.137441         0.898131
 H         4.569906         1.551269         0.240063
 H         3.974485        -1.034542         1.728166
