19
Iteration:  4201
 C         4.533273        -1.050430        -1.434718
 C         3.501983        -0.436727        -0.596808
 O         2.199046        -0.489324        -1.145198
 C         1.476606         0.108546        -0.077768
 C        -0.002432         0.248442        -0.352222
 C         2.262890         1.438247         0.078232
 C         3.593823         0.734976         0.309051
 C         3.211863        -0.589846         0.912525
 O         1.881622        -0.728703         1.088647
 H         5.359423        -0.304588        -1.705434
 H         4.808933        -2.045067        -1.014813
 H         4.040180        -1.380908        -2.425513
 H        -0.363456         0.791833         0.531266
 H        -0.267779         0.896055        -1.226347
 H        -0.559722        -0.639136        -0.611351
 H         2.182243         1.815476        -0.988021
 H         1.822290         2.164994         0.689964
 H         4.603889         1.114096         0.541721
 H         3.835947        -1.119312         1.742673
