19
Iteration:  3003
 C         4.671484        -1.029017        -1.552995
 C         3.505600        -0.508333        -0.623382
 O         2.195485        -0.336741        -1.225310
 C         1.498160         0.209704        -0.167922
 C         0.043741         0.464812        -0.480102
 C         2.324107         1.413315         0.424978
 C         3.583614         0.573480         0.504449
 C         3.128508        -0.872031         0.884819
 O         1.708616        -0.762085         0.965037
 H         5.080025        -1.982813        -1.180249
 H         4.191639        -1.117516        -2.637863
 H         5.412610        -0.192855        -1.633783
 H        -0.376937         0.910572         0.445084
 H         0.001529         1.328556        -1.119022
 H        -0.460207        -0.486503        -0.723831
 H         2.341190         2.321520        -0.111024
 H         1.861063         1.592254         1.363262
 H         4.553796         0.840917         0.790483
 H         3.548305        -1.414363         1.768928
