19
Iteration:   822charge 0 multiplicity 1
 C         4.632296        -0.951237        -1.432340
 C         3.441257        -0.581944        -0.625241
 O         2.188332        -0.313085        -1.294881
 C         1.498994         0.317892        -0.013056
 C         0.017603         0.288672        -0.407750
 C         2.407681         1.477453         0.281312
 C         3.642639         0.547059         0.517105
 C         3.149992        -0.831992         0.803176
 O         1.665824        -0.734457         0.978148
 H         4.661825        -0.521765        -2.492859
 H         5.650017        -0.753124        -0.991352
 H         4.642839        -2.082278        -1.490612
 H        -0.691321         0.475426         0.371575
 H        -0.338184         0.817442        -1.293681
 H        -0.225660        -0.710534        -0.611057
 H         2.421915         1.895901        -0.713943
 H         2.044753         2.228202         1.097109
 H         4.633969         0.847947         0.861402
 H         3.725667        -1.378003         1.532459
