19
Iteration:  1183charge 0 multiplicity 1
 C         4.598163        -1.035883        -1.396918
 C         3.511725        -0.476457        -0.634278
 O         2.341968        -0.021696        -1.307482
 C         1.513002         0.303909        -0.083323
 C         0.074497         0.542941        -0.443229
 C         2.356049         1.371142         0.571575
 C         3.608642         0.347494         0.658163
 C         3.014590        -1.000343         0.723557
 O         1.589487        -0.863584         0.742758
 H         5.521296        -0.954524        -0.888482
 H         4.549317        -2.103648        -1.743321
 H         4.590567        -0.523090        -2.357315
 H        -0.620657         0.727269         0.420200
 H         0.043936         1.327361        -1.179871
 H        -0.288179        -0.446955        -0.934625
 H         2.600360         2.136364        -0.191249
 H         2.173484         1.749941         1.597890
 H         4.608023         0.706823         1.004193
 H         3.476647        -1.836652         1.232856
