19
Iteration:  1357charge 0 multiplicity 1
 C         4.604064        -1.068083        -1.345096
 C         3.516840        -0.470124        -0.601853
 O         2.353384         0.052941        -1.266901
 C         1.487415         0.270621        -0.102260
 C         0.120973         0.680061        -0.419210
 C         2.346967         1.325161         0.580464
 C         3.554796         0.345075         0.714685
 C         3.011512        -1.075320         0.645715
 O         1.595728        -0.927068         0.631875
 H         4.162310        -2.076392        -1.649374
 H         4.960543        -0.505334        -2.321319
 H         5.569810        -1.350581        -0.842008
 H        -0.315298         0.978370         0.539186
 H         0.310509         1.606013        -0.972149
 H        -0.437692         0.039293        -1.123778
 H         2.519708         2.047542        -0.130232
 H         2.083157         1.788898         1.490623
 H         4.507732         0.641885         1.079223
 H         3.420083        -2.022717         1.089713
