19
Iteration:  3538
 C         4.470467        -1.218820        -1.554201
 C         3.524680        -0.466596        -0.546335
 O         2.316140        -0.439177        -1.215319
 C         1.488181         0.196170        -0.127639
 C         0.027134         0.256223        -0.402560
 C         2.231707         1.431454         0.328306
 C         3.614785         0.724324         0.376784
 C         3.224350        -0.582310         0.925193
 O         1.785642        -0.684479         0.959536
 H         5.490055        -0.955073        -1.446382
 H         4.505692        -2.243768        -1.154715
 H         4.050847        -1.001739        -2.445204
 H        -0.504104         0.890320         0.455605
 H        -0.162855         0.929052        -1.275349
 H        -0.511882        -0.744583        -0.608707
 H         2.172873         2.448179        -0.243721
 H         1.825991         1.630964         1.332410
 H         4.514669         1.386883         0.472550
 H         3.706207        -1.201079         1.688590
