19
Iteration:  4012
 C         4.540531        -1.186513        -1.380988
 C         3.557029        -0.445630        -0.624685
 O         2.248762        -0.452735        -1.246772
 C         1.479697         0.141432        -0.189056
 C        -0.021273         0.224786        -0.262685
 C         2.306716         1.401359         0.280596
 C         3.580811         0.817976         0.337551
 C         3.189876        -0.562871         0.854653
 O         1.735571        -0.678938         0.928937
 H         4.246030        -2.221871        -1.667514
 H         4.844839        -0.723462        -2.383182
 H         5.561634        -1.177254        -0.919433
 H        -0.261096         0.740822         0.695647
 H        -0.332474         0.826666        -1.103115
 H        -0.334715        -0.821853        -0.407157
 H         2.261057         2.322168        -0.228885
 H         2.005932         1.586981         1.349733
 H         4.543660         1.321368         0.590561
 H         3.796293        -1.184059         1.644676
