19
Iteration:  1583
 C         4.521712        -0.961481        -1.434472
 C         3.405315        -0.467756        -0.594590
 O         2.314942         0.014427        -1.229987
 C         1.495863         0.285809        -0.086304
 C         0.208855         0.782088        -0.632177
 C         2.445241         1.260425         0.686431
 C         3.605878         0.303981         0.699372
 C         2.984327        -1.177759         0.669776
 O         1.601298        -0.933867         0.758219
 H         5.522210        -0.715959        -0.942509
 H         4.615329        -1.991183        -1.350214
 H         4.625435        -0.577071        -2.450885
 H        -0.431862         1.212997         0.130274
 H         0.501899         1.597353        -1.349937
 H        -0.280486         0.095509        -1.310678
 H         2.636008         1.978560        -0.211334
 H         1.886059         1.724195         1.516202
 H         4.522244         0.342318         1.353700
 H         3.412384        -2.013952         1.142907
