19
Iteration:  2136charge 0 multiplicity 1
 C         4.474311        -1.021798        -1.476866
 C         3.474932        -0.464071        -0.544307
 O         2.263506        -0.092060        -1.288206
 C         1.461294         0.213894        -0.072751
 C         0.141501         0.661271        -0.645252
 C         2.447715         1.320357         0.633256
 C         3.681359         0.403595         0.729564
 C         3.030161        -0.932356         0.789762
 O         1.660411        -0.926091         0.757493
 H         4.071807        -0.888034        -2.563566
 H         5.439998        -0.489167        -1.366551
 H         4.549538        -2.135358        -1.265064
 H        -0.650356         0.958351         0.010234
 H         0.356442         1.446599        -1.282179
 H        -0.129988        -0.170889        -1.203828
 H         2.552451         2.217897         0.062579
 H         2.071669         1.703537         1.602941
 H         4.678359         0.670272         1.043444
 H         3.422159        -1.947528         1.169568
