19
Iteration:  4956charge 0 multiplicity 1
 C         4.495688        -1.181638        -1.400905
 C         3.518326        -0.419745        -0.557699
 O         2.163992        -0.439614        -1.176490
 C         1.457942         0.125116        -0.085467
 C        -0.062575         0.066758        -0.384468
 C         2.263666         1.465012         0.107355
 C         3.666082         0.884410         0.234488
 C         3.305130        -0.552927         0.937722
 O         1.883198        -0.665545         1.088950
 H         5.537429        -1.130532        -0.980846
 H         4.279869        -2.309086        -1.217669
 H         4.354988        -0.941995        -2.535174
 H        -0.804010         0.581165         0.312724
 H        -0.336583         0.393155        -1.470102
 H        -0.364433        -1.026314        -0.284600
 H         2.163823         2.131866        -0.775137
 H         1.841784         2.057908         0.898105
 H         4.603411         1.562665         0.234566
 H         3.927594        -1.027872         1.692442
