19
Iteration:   388
 C         4.636521        -1.144432        -1.445071
 C         3.503249        -0.543400        -0.604084
 O         2.184445        -0.624293        -1.198516
 C         1.421283         0.129919        -0.203776
 C        -0.026168         0.047498        -0.229669
 C         2.215462         1.561178         0.118246
 C         3.600167         0.850279         0.288019
 C         3.291799        -0.514592         0.908238
 O         1.830497        -0.532877         1.041915
 H         4.218049        -1.179161        -2.472516
 H         5.420441        -0.397890        -1.384690
 H         4.956347        -2.099035        -1.073486
 H        -0.335217         0.451050         0.795125
 H        -0.616009         0.757465        -0.806252
 H        -0.323686        -1.050866        -0.314942
 H         2.255226         2.245331        -0.726145
 H         1.802689         1.880687         1.179818
 H         4.412333         1.545569         0.386106
 H         3.948776        -1.030236         1.615378
