19
Iteration:  1975charge 0 multiplicity 1
 C         4.506815        -1.043960        -1.500287
 C         3.470814        -0.508420        -0.510299
 O         2.299682         0.040695        -1.169961
 C         1.506746         0.248813        -0.042951
 C         0.096247         0.635717        -0.671486
 C         2.529649         1.369823         0.608084
 C         3.614101         0.371621         0.700906
 C         3.028773        -1.057127         0.722654
 O         1.582138        -0.934104         0.738191
 H         4.529365        -2.142142        -1.703658
 H         4.290616        -0.610128        -2.376610
 H         5.554429        -0.896228        -1.218412
 H        -0.636877         1.041249         0.092959
 H         0.325023         1.479572        -1.338405
 H        -0.267956        -0.194288        -1.386966
 H         2.442062         2.189021        -0.102602
 H         2.085169         1.644166         1.619015
 H         4.623612         0.611036         1.029170
 H         3.585894        -1.777347         1.294972
