19
Iteration:  1208
 C         4.620137        -1.067250        -1.321314
 C         3.505123        -0.416170        -0.623179
 O         2.191846        -0.076830        -1.246711
 C         1.499632         0.246998        -0.119711
 C         0.086714         0.706267        -0.505097
 C         2.346598         1.292991         0.618197
 C         3.701099         0.515167         0.604408
 C         3.053461        -0.979638         0.665257
 O         1.637383        -1.029670         0.702427
 H         5.566501        -0.622179        -1.113414
 H         4.722592        -2.143131        -1.057209
 H         4.451069        -1.155824        -2.371921
 H        -0.433477         1.157423         0.348378
 H         0.267674         1.506238        -1.282192
 H        -0.543622        -0.064514        -0.948711
 H         2.245243         2.325075         0.031722
 H         2.094980         1.328385         1.757936
 H         4.659348         0.767966         1.027077
 H         3.625419        -1.731181         1.161545
