19
Iteration:  3619
 C         4.630588        -1.094499        -1.493205
 C         3.565960        -0.507494        -0.536818
 O         2.195079        -0.483714        -1.217063
 C         1.471309         0.156333        -0.172737
 C        -0.063672         0.263973        -0.276060
 C         2.274371         1.447738         0.185946
 C         3.674095         0.685961         0.324656
 C         3.173440        -0.684772         0.909605
 O         1.711115        -0.572828         0.999382
 H         5.415501        -1.582255        -0.855952
 H         4.318064        -1.701266        -2.322089
 H         5.331723        -0.347744        -1.980078
 H        -0.303591         0.604624         0.702705
 H        -0.512194         0.905510        -1.068923
 H        -0.258469        -0.780828        -0.530522
 H         2.316633         2.313837        -0.479906
 H         1.964641         1.756686         1.251928
 H         4.614882         1.052379         0.512359
 H         3.579638        -1.274813         1.633813
