19
Iteration:  4894charge 0 multiplicity 1
 C         4.570924        -1.131938        -1.352194
 C         3.557135        -0.488139        -0.554607
 O         2.196563        -0.466541        -1.144753
 C         1.460200         0.106969        -0.068631
 C        -0.088682         0.082069        -0.243712
 C         2.220301         1.508905        -0.055452
 C         3.574172         0.857955         0.212633
 C         3.300376        -0.587414         0.836669
 O         1.860612        -0.650234         1.070606
 H         5.229635        -1.774873        -0.787470
 H         3.939251        -1.719213        -2.059552
 H         5.132750        -0.586627        -2.019892
 H        -0.510363         0.559924         0.592155
 H        -0.137438         0.722928        -1.061847
 H        -0.416057        -0.947882        -0.320026
 H         2.184130         2.239560        -0.978117
 H         1.774874         2.233509         0.816810
 H         4.471715         1.333107         0.766716
 H         3.970686        -1.125375         1.622359
