19
Iteration:  1896
 C         4.618052        -1.021280        -1.381589
 C         3.509961        -0.394263        -0.590079
 O         2.241043        -0.096121        -1.267412
 C         1.483427         0.164403        -0.183568
 C         0.137882         0.737288        -0.415589
 C         2.375436         1.350753         0.519713
 C         3.603772         0.435424         0.729407
 C         3.009993        -1.006741         0.686735
 O         1.622263        -1.014138         0.677196
 H         4.253021        -1.371537        -2.330201
 H         5.496729        -0.505231        -1.456479
 H         4.852152        -1.914918        -0.830361
 H        -0.249088         0.933895         0.556917
 H         0.399655         1.734400        -0.853251
 H        -0.507764         0.158321        -0.995172
 H         2.475428         2.115554        -0.293387
 H         2.189812         2.022441         1.421950
 H         4.548631         0.490282         1.279389
 H         3.540893        -1.844659         1.229144
