19
Iteration:  1367charge 0 multiplicity 1
 C         4.610445        -1.118924        -1.367346
 C         3.481451        -0.480755        -0.585661
 O         2.357900         0.055712        -1.303382
 C         1.511016         0.283806        -0.121148
 C         0.110019         0.657218        -0.439953
 C         2.428368         1.292222         0.647164
 C         3.620692         0.384375         0.661816
 C         2.954706        -1.029356         0.667763
 O         1.561461        -0.903927         0.630293
 H         4.571597        -2.176918        -1.745854
 H         4.617752        -0.401299        -2.249420
 H         5.549516        -0.925819        -0.755807
 H        -0.516637         0.816941         0.427503
 H         0.061320         1.513527        -1.065309
 H        -0.423483        -0.214998        -0.875009
 H         2.703872         2.126632         0.066914
 H         2.144716         1.599984         1.635428
 H         4.411007         0.618191         1.326060
 H         3.250110        -1.996485         1.116450
