19
Iteration:  4820charge 0 multiplicity 1
 C         4.575426        -1.069527        -1.451122
 C         3.489631        -0.491014        -0.630408
 O         2.081546        -0.466700        -1.152759
 C         1.462071         0.076081        -0.055441
 C        -0.031582         0.077364        -0.366950
 C         2.325732         1.477644         0.009174
 C         3.620006         0.744249         0.292923
 C         3.249567        -0.514338         0.929616
 O         1.828673        -0.614754         1.161092
 H         5.531453        -0.808652        -0.935632
 H         4.586559        -2.188911        -1.607334
 H         4.635249        -0.615091        -2.492619
 H        -0.574122         0.465803         0.471822
 H        -0.065473         0.770085        -1.179934
 H        -0.308805        -0.972712        -0.576941
 H         2.261006         2.080103        -0.840301
 H         2.084247         2.151648         0.823681
 H         4.658112         1.173579         0.597412
 H         4.014653        -1.110100         1.560805
