19
Iteration:  3357charge 0 multiplicity 1
 C         4.426526        -1.143648        -1.425149
 C         3.511367        -0.473270        -0.611160
 O         2.223544        -0.323736        -1.204231
 C         1.438324         0.176188        -0.047820
 C        -0.013538         0.171795        -0.361897
 C         2.295968         1.445272         0.191437
 C         3.649284         0.737333         0.415335
 C         3.238759        -0.684258         0.851465
 O         1.840064        -0.698284         0.973227
 H         5.243704        -1.690693        -0.927004
 H         4.013098        -1.963103        -2.119573
 H         5.106172        -0.444907        -2.085822
 H        -0.456763         0.778984         0.371141
 H        -0.081718         0.923742        -1.157010
 H        -0.302450        -0.800349        -0.591997
 H         2.352077         2.011009        -0.705489
 H         2.073449         2.067442         0.992291
 H         4.468039         1.244720         0.884501
 H         3.690272        -1.277930         1.569816
