19
Iteration:  2131
 C         4.466366        -1.021429        -1.508946
 C         3.485701        -0.421770        -0.510060
 O         2.257799        -0.095864        -1.255514
 C         1.455132         0.214868        -0.117041
 C         0.158756         0.676605        -0.613355
 C         2.432890         1.313819         0.602792
 C         3.626944         0.403764         0.737579
 C         3.050142        -0.979686         0.796526
 O         1.696368        -0.940355         0.765149
 H         4.014117        -0.967445        -2.438532
 H         5.479341        -0.609862        -1.392076
 H         4.608633        -2.045787        -1.250962
 H        -0.735978         1.073629        -0.058639
 H         0.392219         1.571790        -1.358494
 H        -0.200271        -0.170544        -1.333604
 H         2.555792         2.198615        -0.091874
 H         2.210810         1.752289         1.587577
 H         4.608674         0.703640         1.131649
 H         3.369719        -1.916736         1.080843
