19
Iteration:  3641
 C         4.506981        -1.139937        -1.487622
 C         3.482927        -0.495851        -0.536318
 O         2.251536        -0.430656        -1.207323
 C         1.488518         0.117515        -0.104341
 C         0.003265         0.278854        -0.371791
 C         2.281837         1.448674         0.155424
 C         3.555947         0.735490         0.382719
 C         3.244551        -0.595506         0.917118
 O         1.816273        -0.722710         1.041748
 H         5.131875        -1.950967        -1.029648
 H         3.954709        -1.458246        -2.353349
 H         5.243556        -0.377151        -1.906927
 H        -0.400668         0.737499         0.506911
 H        -0.201344         1.009563        -1.198759
 H        -0.357507        -0.662592        -0.777772
 H         2.410993         2.132219        -0.684154
 H         1.826775         1.987062         1.072386
 H         4.421711         1.253601         0.682692
 H         3.802549        -1.165030         1.560393
