19
Iteration:   377
 C         4.633358        -1.110043        -1.430124
 C         3.539791        -0.505041        -0.598499
 O         2.194915        -0.632917        -1.164086
 C         1.465355         0.175667        -0.213441
 C        -0.132231        -0.004387        -0.186590
 C         2.346303         1.537722         0.076845
 C         3.582947         0.820103         0.218913
 C         3.226864        -0.481218         0.856695
 O         1.785149        -0.509046         1.085512
 H         4.566212        -0.834491        -2.492056
 H         5.545010        -0.565988        -1.141477
 H         4.940291        -2.147598        -1.366094
 H        -0.423569         0.215433         0.890982
 H        -0.722053         0.432683        -0.995531
 H        -0.398865        -1.125967        -0.256516
 H         2.284373         2.471261        -0.457390
 H         1.862969         1.899297         1.105134
 H         4.587142         1.115327         0.438362
 H         3.811865        -1.130771         1.522625
