19
Iteration:  3530
 C         4.453569        -1.208319        -1.506627
 C         3.578216        -0.478375        -0.546389
 O         2.270187        -0.392571        -1.206766
 C         1.463849         0.174386        -0.152450
 C         0.040093         0.266140        -0.430962
 C         2.248237         1.405531         0.324497
 C         3.629501         0.788888         0.383340
 C         3.195233        -0.621274         0.916251
 O         1.791188        -0.677722         0.990209
 H         5.453397        -0.757664        -1.487246
 H         4.348093        -2.374459        -1.294485
 H         4.004872        -1.076080        -2.575449
 H        -0.535296         0.599420         0.474701
 H        -0.085009         0.823436        -1.393556
 H        -0.410497        -0.771695        -0.481982
 H         2.213520         2.277278        -0.481939
 H         2.028848         1.746861         1.358888
 H         4.603251         1.339380         0.570369
 H         3.781266        -1.353889         1.604785
