19
Iteration:  4428charge 0 multiplicity 1
 C         4.588632        -1.161508        -1.332032
 C         3.454747        -0.413242        -0.661436
 O         2.099273        -0.509530        -1.184999
 C         1.465184         0.086339        -0.075019
 C        -0.020486         0.083299        -0.287398
 C         2.235612         1.535935         0.092832
 C         3.559078         0.843668         0.197752
 C         3.319920        -0.550343         0.911071
 O         1.904648        -0.634923         1.070858
 H         4.278852        -1.972395        -1.937046
 H         5.218197        -0.555924        -1.933914
 H         5.232517        -1.724704        -0.754246
 H        -0.429553         0.603400         0.598244
 H        -0.129856         0.719273        -1.170835
 H        -0.359185        -0.916079        -0.326103
 H         2.122211         2.093620        -0.888912
 H         2.012569         2.149036         1.024958
 H         4.538351         1.321930         0.297357
 H         3.901956        -1.246295         1.449680
