19
Iteration:  4446
 C         4.578402        -1.239766        -1.291658
 C         3.497862        -0.436616        -0.708210
 O         2.160308        -0.413731        -1.194198
 C         1.407753         0.177092         0.006625
 C        -0.074809         0.071189        -0.256429
 C         2.225596         1.468863         0.090079
 C         3.599671         0.837321         0.216272
 C         3.322695        -0.497296         0.767992
 O         1.939869        -0.692150         1.079471
 H         4.083139        -1.921679        -2.066100
 H         5.438371        -0.604958        -1.743099
 H         4.935200        -1.833325        -0.406403
 H        -0.889314         0.432384         0.429376
 H        -0.254594         0.611547        -1.251535
 H        -0.384881        -1.039989        -0.286923
 H         2.081576         2.046840        -0.765669
 H         1.909266         2.178161         0.858280
 H         4.514306         1.393364         0.354259
 H         3.967464        -0.886064         1.497717
