19
Iteration:   365charge 0 multiplicity 1
 C         4.678488        -1.033097        -1.398756
 C         3.474109        -0.496625        -0.626314
 O         2.171110        -0.542733        -1.147203
 C         1.424117         0.166919        -0.131384
 C        -0.113906        -0.055117        -0.191019
 C         2.301893         1.499296         0.032998
 C         3.674374         0.743495         0.153424
 C         3.187455        -0.545878         0.906444
 O         1.835919        -0.493395         1.064885
 H         4.624830        -0.615599        -2.386503
 H         5.630655        -0.905604        -0.914116
 H         4.397670        -2.064716        -1.479186
 H        -0.617245         0.388195         0.721316
 H        -0.553687         0.517147        -1.040562
 H        -0.156034        -1.189726        -0.302457
 H         2.259394         2.129119        -0.835407
 H         2.099574         1.943925         1.098593
 H         4.642691         1.239441         0.371863
 H         3.724762        -0.960113         1.816609
