19
Iteration:  3353
 C         4.435516        -1.138004        -1.444280
 C         3.496556        -0.435399        -0.596927
 O         2.223972        -0.329271        -1.203653
 C         1.478081         0.154349        -0.040071
 C        -0.039439         0.217319        -0.374002
 C         2.305769         1.436654         0.188550
 C         3.618476         0.739119         0.418449
 C         3.239496        -0.688554         0.815384
 O         1.833293        -0.721351         0.979099
 H         5.208584        -1.686195        -0.883694
 H         4.209180        -2.121322        -1.937823
 H         5.020103        -0.501510        -2.020545
 H        -0.448376         0.801517         0.528264
 H         0.076900         0.933671        -1.170096
 H        -0.320971        -0.854978        -0.527571
 H         2.221714         1.981780        -0.854141
 H         2.020852         2.208228         0.985389
 H         4.495951         1.214125         0.926454
 H         3.868424        -1.340527         1.619757
