19
Iteration:  3440charge 0 multiplicity 1
 C         4.642173        -1.096441        -1.429815
 C         3.510751        -0.472320        -0.575327
 O         2.191077        -0.456560        -1.183464
 C         1.436171         0.114285        -0.088284
 C         0.010956         0.392577        -0.266484
 C         2.259468         1.425914         0.099337
 C         3.587514         0.737088         0.357092
 C         3.234747        -0.635747         0.849752
 O         1.802491        -0.787299         0.987530
 H         5.223191        -1.730886        -0.783875
 H         4.061213        -1.688493        -2.165357
 H         5.123764        -0.322089        -1.878294
 H        -0.568814         0.755158         0.627597
 H        -0.017711         1.029894        -1.159794
 H        -0.673911        -0.454878        -0.553779
 H         2.157925         2.067368        -0.871333
 H         1.984266         2.035864         0.994020
 H         4.520343         1.114720         0.707204
 H         3.797655        -1.247910         1.543530
