19
Iteration:  4608charge 0 multiplicity 1
 C         4.536675        -1.265835        -1.343579
 C         3.484464        -0.369901        -0.592905
 O         2.218968        -0.430234        -1.227001
 C         1.454079         0.213698        -0.072668
 C        -0.049355         0.050450        -0.270330
 C         2.287310         1.472908         0.127700
 C         3.586908         0.837860         0.249445
 C         3.264231        -0.500889         0.811123
 O         1.901491        -0.679598         1.034955
 H         4.623658        -2.111983        -0.665020
 H         3.976129        -1.657626        -2.265010
 H         5.477350        -0.671065        -1.485687
 H        -0.776166         0.381573         0.468328
 H        -0.407627         0.373472        -1.240761
 H        -0.173220        -1.010581        -0.235879
 H         1.994646         2.235422        -0.689616
 H         1.952742         2.057130         1.044974
 H         4.476856         1.387447         0.617779
 H         3.849135        -1.230012         1.295791
