19
Iteration:   874
 C         4.554309        -1.182264        -1.503341
 C         3.528485        -0.444918        -0.595263
 O         2.224607        -0.286538        -1.254299
 C         1.502307         0.194707        -0.076405
 C         0.080357         0.443207        -0.453501
 C         2.262514         1.406805         0.397666
 C         3.519398         0.694572         0.566874
 C         3.187368        -0.743773         0.848316
 O         1.802611        -0.856835         0.896803
 H         4.140837        -2.101878        -1.927978
 H         4.865652        -0.581016        -2.266872
 H         5.494542        -1.468687        -0.998224
 H        -0.570166         0.844530         0.348806
 H         0.129555         1.160252        -1.288815
 H        -0.637345        -0.320435        -0.868750
 H         2.308154         2.161010        -0.393986
 H         1.780402         1.764937         1.394017
 H         4.415818         1.204503         0.838716
 H         3.706871        -1.543442         1.350617
