19
Iteration:  1002charge 0 multiplicity 1
 C         4.648645        -1.016056        -1.526165
 C         3.517709        -0.508712        -0.589760
 O         2.246845        -0.301861        -1.228303
 C         1.478933         0.143087        -0.134733
 C         0.054129         0.573553        -0.548934
 C         2.258301         1.293000         0.553581
 C         3.653878         0.559871         0.561243
 C         3.126058        -0.797366         0.820890
 O         1.661843        -0.773388         0.873936
 H         5.158070        -0.195558        -2.075227
 H         5.291110        -1.812918        -0.903679
 H         4.101539        -1.712822        -2.253905
 H        -0.457782         1.100661         0.265149
 H         0.177746         1.434352        -1.182855
 H        -0.548300        -0.205982        -1.082156
 H         2.237601         2.268167         0.104193
 H         2.027197         1.408032         1.547156
 H         4.717162         0.744204         0.794504
 H         3.585109        -1.548355         1.499343
