19
Iteration:   415charge 0 multiplicity 1
 C         4.544541        -1.155686        -1.383447
 C         3.507085        -0.363900        -0.622002
 O         2.209219        -0.442315        -1.145254
 C         1.435206         0.026729         0.013305
 C        -0.044925         0.156392        -0.334100
 C         2.178583         1.447401         0.004257
 C         3.591913         0.844504         0.186840
 C         3.320224        -0.504497         0.886159
 O         1.878311        -0.766760         1.143989
 H         3.943469        -1.744055        -2.113866
 H         5.195994        -0.373744        -1.859291
 H         5.099457        -1.900764        -0.722355
 H        -0.569510         0.601224         0.484708
 H        -0.038214         0.922526        -1.154473
 H        -0.328757        -0.814471        -0.635047
 H         2.046008         1.817249        -1.030466
 H         1.965109         2.056330         0.815545
 H         4.412317         1.591784         0.445926
 H         4.167883        -0.977720         1.465920
