19
Iteration:  3398
 C         4.547732        -1.118663        -1.505425
 C         3.466098        -0.510400        -0.585530
 O         2.178412        -0.406016        -1.184348
 C         1.522396         0.206572        -0.085626
 C        -0.017756         0.138964        -0.417271
 C         2.349643         1.459171         0.278308
 C         3.639576         0.669603         0.338610
 C         3.179443        -0.648723         0.855809
 O         1.800143        -0.555517         1.028979
 H         5.055578        -2.010002        -1.151546
 H         4.038609        -1.666520        -2.313833
 H         5.181201        -0.289922        -1.765278
 H        -0.612245         0.400491         0.490245
 H        -0.159112         0.748325        -1.272287
 H        -0.295576        -0.918713        -0.542034
 H         2.362297         2.390719        -0.382590
 H         1.977269         1.741132         1.259226
 H         4.520092         1.152011         0.720913
 H         3.714329        -1.266814         1.576318
