19
Iteration:  1980
 C         4.517893        -1.076188        -1.529480
 C         3.498802        -0.502377        -0.521131
 O         2.323188         0.031201        -1.197781
 C         1.470799         0.258693        -0.091497
 C         0.129122         0.673592        -0.658344
 C         2.485218         1.359058         0.617713
 C         3.591091         0.404409         0.722110
 C         3.034819        -1.041301         0.771539
 O         1.576384        -0.965649         0.770819
 H         4.477486        -2.147890        -1.725909
 H         4.230848        -0.591329        -2.598323
 H         5.588350        -0.845947        -1.347889
 H        -0.552892         1.004376         0.120893
 H         0.335405         1.487032        -1.379870
 H        -0.282214        -0.120390        -1.306720
 H         2.407286         2.196379        -0.088486
 H         2.213152         1.454324         1.648876
 H         4.555979         0.690801         1.129739
 H         3.578816        -1.839059         1.329731
