19
Iteration:  3286
 C         4.640705        -1.049423        -1.448303
 C         3.519652        -0.472093        -0.607503
 O         2.113698        -0.388492        -1.221349
 C         1.486395         0.186479        -0.126745
 C        -0.014949         0.282963        -0.330246
 C         2.362599         1.433325         0.222461
 C         3.599238         0.649128         0.371139
 C         3.163613        -0.791752         0.916415
 O         1.770149        -0.675046         0.994457
 H         5.560464        -0.432026        -1.407519
 H         4.934989        -2.120506        -1.192677
 H         4.389852        -0.991436        -2.466930
 H        -0.600584         0.814334         0.448814
 H        -0.302574         1.086351        -1.060336
 H        -0.266194        -0.823926        -0.610728
 H         2.341736         2.111185        -0.699220
 H         2.079868         2.039067         1.199237
 H         4.525696         1.094789         0.596425
 H         3.786972        -1.379667         1.537177
