19
Iteration:   275charge 0 multiplicity 1
 C         4.570079        -1.092595        -1.363142
 C         3.458311        -0.432274        -0.610873
 O         2.147297        -0.552780        -1.097584
 C         1.458311         0.168115        -0.039927
 C        -0.062101        -0.035142        -0.268020
 C         2.229772         1.493399        -0.040105
 C         3.601994         0.815418         0.177824
 C         3.318058        -0.521653         0.871845
 O         1.913975        -0.557406         1.114131
 H         5.482857        -0.969773        -0.848974
 H         4.413096        -2.145773        -1.455996
 H         4.733137        -0.686105        -2.347338
 H        -0.611829         0.539220         0.467608
 H        -0.321880         0.256070        -1.330196
 H        -0.232764        -1.097585        -0.158390
 H         2.175188         1.921384        -1.067798
 H         1.812663         2.152162         0.689089
 H         4.484561         1.422416         0.213523
 H         3.877475        -1.119953         1.531294
