19
Iteration:  2455
 C         4.636881        -1.111705        -1.429317
 C         3.516928        -0.477271        -0.663515
 O         2.258019        -0.121026        -1.283974
 C         1.471056         0.236674        -0.077686
 C         0.002687         0.566611        -0.477734
 C         2.324592         1.326691         0.585294
 C         3.658539         0.521293         0.522791
 C         3.116743        -0.854219         0.823804
 O         1.678735        -0.882082         0.786782
 H         4.362571        -1.590588        -2.371882
 H         5.406277        -0.409757        -1.310060
 H         4.941858        -2.027943        -0.861939
 H        -0.558127         0.959390         0.428002
 H        -0.012603         1.245029        -1.352888
 H        -0.561647        -0.313682        -0.985333
 H         2.313230         2.250936         0.012378
 H         1.943796         1.548328         1.590287
 H         4.679868         0.838291         0.721676
 H         3.450596        -1.697013         1.351582
