19
Iteration:  4532charge 0 multiplicity 1
 C         4.573486        -0.973160        -1.458598
 C         3.439927        -0.589274        -0.584315
 O         2.094798        -0.632580        -1.152617
 C         1.470343         0.147672        -0.035918
 C        -0.006847         0.185648        -0.349166
 C         2.243659         1.419044         0.021933
 C         3.632601         0.766886         0.195083
 C         3.306605        -0.538309         0.949052
 O         1.892610        -0.591328         1.176507
 H         4.413882        -1.799809        -2.197092
 H         4.839478        -0.124729        -2.211618
 H         5.449478        -1.116007        -0.710907
 H        -0.557503         0.647530         0.454661
 H        -0.111863         0.706245        -1.294344
 H        -0.293334        -0.806668        -0.686529
 H         2.170626         1.891606        -0.950224
 H         1.895742         2.028011         0.878478
 H         4.416742         1.450545         0.492665
 H         3.744694        -1.076430         1.676413
