19
Iteration:  2270charge 0 multiplicity 1
 C         4.505817        -1.015457        -1.505204
 C         3.464244        -0.516560        -0.588046
 O         2.320028        -0.077863        -1.184185
 C         1.501696         0.287320        -0.035607
 C         0.115429         0.491848        -0.586788
 C         2.450203         1.396687         0.543892
 C         3.614601         0.376962         0.674615
 C         2.994718        -0.983413         0.794800
 O         1.619719        -0.838152         0.751772
 H         5.408130        -0.418662        -1.234120
 H         4.522395        -2.089509        -1.766236
 H         4.487202        -0.582629        -2.579131
 H        -0.643488         0.871761         0.070508
 H         0.288368         1.232128        -1.255457
 H        -0.075976        -0.426815        -1.127846
 H         2.617532         2.215029        -0.198818
 H         2.247403         1.958939         1.506572
 H         4.589832         0.470928         1.182087
 H         3.438750        -1.776715         1.428889
