19
Iteration:  4151
 C         4.594189        -1.196256        -1.342491
 C         3.488409        -0.427972        -0.659059
 O         2.154366        -0.340881        -1.279438
 C         1.451306         0.191927        -0.082530
 C        -0.020462         0.071849        -0.298017
 C         2.325591         1.510833         0.186580
 C         3.587287         0.740217         0.294884
 C         3.282112        -0.637069         0.839904
 O         1.788009        -0.648204         1.055303
 H         4.977196        -0.658222        -2.165066
 H         5.260670        -1.483101        -0.574397
 H         4.249713        -2.177172        -1.600375
 H        -0.571437         0.556307         0.528974
 H        -0.376804         0.581902        -1.205491
 H        -0.392349        -0.969835        -0.510946
 H         2.392708         2.264983        -0.607846
 H         2.097908         2.003428         1.207321
 H         4.595324         1.238779         0.384673
 H         3.870021        -1.318316         1.534140
