19
Iteration:  4373
 C         4.534508        -0.996418        -1.491330
 C         3.450176        -0.520188        -0.563948
 O         2.166013        -0.571770        -1.078575
 C         1.466188         0.176523        -0.076493
 C         0.037595         0.176975        -0.343362
 C         2.324842         1.397250        -0.004077
 C         3.593608         0.804141         0.307986
 C         3.249029        -0.586167         0.915616
 O         1.845467        -0.640487         1.119707
 H         4.673431        -2.085160        -1.496855
 H         4.159313        -0.858611        -2.519795
 H         5.468610        -0.428489        -1.380039
 H        -0.584230         0.547041         0.485132
 H        -0.319693         0.679039        -1.284265
 H        -0.268055        -0.853457        -0.456441
 H         2.264218         1.881159        -0.994297
 H         1.838665         2.276509         0.583665
 H         4.561848         1.209063         0.587504
 H         3.837325        -1.152221         1.577903
