19
Iteration:   507charge 0 multiplicity 1
 C         4.593513        -1.037108        -1.381601
 C         3.467840        -0.450460        -0.628041
 O         2.177620        -0.473728        -1.199602
 C         1.446434         0.095258        -0.089607
 C         0.065076         0.168284        -0.266860
 C         2.237215         1.461152         0.038342
 C         3.614332         0.800752         0.354425
 C         3.229680        -0.630112         0.834311
 O         1.834148        -0.695336         1.109135
 H         5.297266        -1.533806        -0.717767
 H         4.154929        -1.760057        -2.075794
 H         5.063225        -0.291766        -2.001926
 H        -0.594413         0.817362         0.408333
 H        -0.258874         0.666266        -1.210011
 H        -0.426912        -0.876645        -0.338981
 H         2.237867         1.793900        -0.974546
 H         1.841243         2.260722         0.788306
 H         4.567447         1.277764         0.464005
 H         3.767187        -1.296014         1.460668
