19
Iteration:  3835charge 0 multiplicity 1
 C         4.505893        -1.197242        -1.485953
 C         3.539926        -0.416404        -0.548915
 O         2.265251        -0.288254        -1.200995
 C         1.509619         0.233213        -0.153744
 C        -0.027189         0.195954        -0.347894
 C         2.319939         1.465858         0.258476
 C         3.595506         0.697214         0.463530
 C         3.153085        -0.679907         0.885967
 O         1.787232        -0.752129         0.899991
 H         5.495712        -0.718185        -1.403670
 H         4.307626        -2.269544        -1.119091
 H         4.324309        -1.168073        -2.544316
 H        -0.571357         0.491235         0.562900
 H        -0.301265         0.795288        -1.296929
 H        -0.334055        -0.895654        -0.422171
 H         2.340092         2.102181        -0.613587
 H         1.959545         1.997933         1.161415
 H         4.625930         1.221246         0.691477
 H         3.839081        -1.241497         1.619877
