19
Iteration:  4741charge 0 multiplicity 1
 C         4.577749        -1.174070        -1.317143
 C         3.491913        -0.494349        -0.642473
 O         2.106972        -0.387113        -1.151741
 C         1.454678         0.104308        -0.060437
 C        -0.016361         0.113154        -0.296054
 C         2.237502         1.493881         0.117585
 C         3.635593         0.881550         0.207457
 C         3.226349        -0.599219         0.822869
 O         1.912185        -0.680477         1.036149
 H         5.550026        -0.738846        -0.975093
 H         4.613282        -2.332529        -1.045622
 H         4.539633        -1.036969        -2.366881
 H        -0.443157         0.720590         0.492487
 H        -0.138896         0.555170        -1.292753
 H        -0.441809        -0.850468        -0.427629
 H         2.133199         2.028797        -0.893205
 H         1.950556         1.979931         1.130508
 H         4.534478         1.332308         0.480907
 H         3.790476        -1.227783         1.445915
