19
Iteration:  4101charge 0 multiplicity 1
 C         4.593027        -1.174708        -1.576385
 C         3.517516        -0.493872        -0.546905
 O         2.249850        -0.535405        -1.218431
 C         1.467721         0.104317        -0.198905
 C        -0.003056         0.298770        -0.363494
 C         2.204642         1.409240         0.257796
 C         3.636804         0.810545         0.346470
 C         3.198210        -0.548367         0.982017
 O         1.802086        -0.645631         1.066737
 H         4.004043        -1.020091        -2.536474
 H         5.603837        -0.464449        -1.589405
 H         4.845205        -2.227015        -1.287770
 H        -0.587724         0.680132         0.504445
 H        -0.213823         0.907351        -1.274561
 H        -0.443259        -0.694061        -0.581923
 H         2.100142         2.233801        -0.486907
 H         1.863647         1.721719         1.218843
 H         4.618236         1.178979         0.636570
 H         3.688523        -1.046672         1.699170
