19
Iteration:  2145charge 0 multiplicity 1
 C         4.512833        -1.050690        -1.452595
 C         3.439803        -0.503849        -0.633404
 O         2.294552        -0.083291        -1.269145
 C         1.526425         0.301037        -0.043453
 C         0.119669         0.588721        -0.648805
 C         2.447412         1.319589         0.702825
 C         3.705494         0.437426         0.657517
 C         3.048787        -0.965629         0.765545
 O         1.539168        -0.876639         0.758362
 H         4.296298        -0.806482        -2.488721
 H         5.474932        -0.478184        -1.340490
 H         4.692536        -2.108096        -1.424400
 H        -0.499637         0.770818         0.233975
 H         0.275968         1.464389        -1.333870
 H        -0.275669        -0.246226        -1.179679
 H         2.596929         2.177080         0.119129
 H         1.939274         1.417614         1.601544
 H         4.711673         0.622850         1.027213
 H         3.519194        -1.725345         1.460349
