19
Iteration:  4634charge 0 multiplicity 1
 C         4.581770        -1.267302        -1.498068
 C         3.472641        -0.455268        -0.566648
 O         2.178986        -0.443114        -1.190701
 C         1.465433         0.169323        -0.152178
 C         0.022238         0.027413        -0.383246
 C         2.203293         1.521863         0.225407
 C         3.555462         0.798360         0.206957
 C         3.291559        -0.523797         0.920435
 O         1.902580        -0.573441         1.104442
 H         4.839134        -1.968301        -0.668744
 H         4.148407        -1.781933        -2.416805
 H         5.397439        -0.612371        -1.592332
 H        -0.521661         0.497533         0.478899
 H        -0.337963         0.648001        -1.229129
 H        -0.471952        -0.963307        -0.378743
 H         1.976662         2.269131        -0.393959
 H         1.915803         1.903431         1.167194
 H         4.469761         1.333734         0.295058
 H         3.860573        -1.054431         1.764690
