19
Iteration:  1117charge 0 multiplicity 1
 C         4.616009        -0.995481        -1.478263
 C         3.484513        -0.436184        -0.574087
 O         2.238494        -0.162797        -1.199711
 C         1.411383         0.221461        -0.108564
 C         0.053591         0.638952        -0.637844
 C         2.373083         1.318636         0.536799
 C         3.596886         0.445034         0.623200
 C         3.135489        -0.969563         0.779391
 O         1.680026        -0.941412         0.889706
 H         4.633580        -2.082170        -1.598568
 H         4.663849        -0.549637        -2.480663
 H         5.564110        -0.709250        -1.039784
 H        -0.502077         0.990144         0.271452
 H         0.328409         1.624180        -1.062589
 H        -0.511280         0.041160        -1.421172
 H         2.457810         2.096246        -0.297824
 H         2.150707         1.874190         1.526178
 H         4.548055         0.881290         0.917867
 H         3.595025        -1.934468         1.139713
