19
Iteration:    69
 C         4.611516        -1.113033        -1.428530
 C         3.465881        -0.506482        -0.723642
 O         2.113685        -0.738853        -1.117422
 C         1.468314         0.035370        -0.034007
 C         0.032412        -0.011818        -0.276501
 C         2.125186         1.424271         0.075767
 C         3.449426         0.906483        -0.015311
 C         3.337785        -0.322263         0.875877
 O         1.988778        -0.425347         1.276050
 H         5.296247        -0.356444        -1.856386
 H         5.177500        -1.675789        -0.605307
 H         4.213164        -1.865146        -2.183686
 H        -0.481861         0.391093         0.603171
 H        -0.180748         0.606611        -1.116128
 H        -0.274755        -1.037170        -0.476605
 H         1.819167         2.248677        -0.616627
 H         2.045380         1.829354         1.067932
 H         4.395270         1.487726         0.112004
 H         4.149071        -0.705133         1.535248
