19
Iteration:  3914charge 0 multiplicity 1
 C         4.565480        -0.986056        -1.476639
 C         3.522055        -0.501564        -0.594312
 O         2.229092        -0.419161        -1.213307
 C         1.491206         0.134212        -0.093185
 C        -0.001803         0.317097        -0.352086
 C         2.348030         1.409228         0.150328
 C         3.589000         0.618941         0.416386
 C         3.180419        -0.719147         0.946237
 O         1.710760        -0.673647         0.990545
 H         5.537341        -1.196585        -1.057944
 H         4.410271        -1.900748        -1.927081
 H         4.669176        -0.277075        -2.303782
 H        -0.457831         0.594807         0.669244
 H        -0.195421         1.012528        -1.215839
 H        -0.345373        -0.767894        -0.521770
 H         2.475986         2.023823        -0.729583
 H         2.005368         2.075692         1.017093
 H         4.448587         1.123321         0.693294
 H         3.762248        -1.231235         1.660891
