19
Iteration:  2542charge 0 multiplicity 1
 C         4.528986        -0.944336        -1.507568
 C         3.499313        -0.481712        -0.597561
 O         2.234778        -0.321156        -1.182372
 C         1.497630         0.174370        -0.116079
 C         0.110257         0.549490        -0.602518
 C         2.344824         1.349880         0.584935
 C         3.599535         0.465634         0.543472
 C         3.145978        -0.925411         0.789142
 O         1.682767        -0.707421         0.878850
 H         4.733176        -0.308180        -2.371076
 H         5.460633        -0.944196        -1.074159
 H         4.457381        -2.019172        -1.759816
 H        -0.535053         0.634304         0.345106
 H         0.115378         1.418551        -1.368295
 H        -0.489464        -0.209667        -1.274039
 H         2.440174         2.223852         0.045062
 H         2.048311         1.353311         1.594745
 H         4.589392         0.973422         0.751763
 H         3.461571        -1.674741         1.520193
