19
Iteration:  4155charge 0 multiplicity 1
 C         4.591256        -1.187987        -1.342327
 C         3.509478        -0.415213        -0.672507
 O         2.168791        -0.357059        -1.255962
 C         1.446350         0.176963        -0.106894
 C        -0.043555         0.076813        -0.293849
 C         2.297990         1.512847         0.218739
 C         3.599053         0.724804         0.253029
 C         3.287637        -0.653216         0.855836
 O         1.761613        -0.612936         1.048138
 H         5.120427        -0.648003        -2.196332
 H         5.341349        -1.595293        -0.519288
 H         4.225654        -2.164211        -1.751257
 H        -0.434269         0.553994         0.585665
 H        -0.416431         0.537680        -1.185955
 H        -0.272625        -0.937638        -0.473563
 H         2.362747         2.296649        -0.502636
 H         2.151207         1.997328         1.151165
 H         4.563101         1.118546         0.472873
 H         3.892781        -1.202635         1.476044
