19
Iteration:  4265charge 0 multiplicity 1
 C         4.594389        -1.166425        -1.431273
 C         3.468690        -0.480486        -0.565845
 O         2.211505        -0.506084        -1.198899
 C         1.435918         0.181394        -0.083032
 C        -0.026303         0.084406        -0.310742
 C         2.236542         1.508105         0.180058
 C         3.651637         0.797504         0.247024
 C         3.244877        -0.571650         0.861350
 O         1.804874        -0.583908         1.057903
 H         5.554620        -1.281952        -0.890904
 H         4.037365        -1.982996        -1.960547
 H         4.889010        -0.422218        -2.236721
 H        -0.450577         0.489983         0.590545
 H        -0.367985         0.693761        -1.137888
 H        -0.280788        -0.918884        -0.335856
 H         2.271204         1.993356        -0.784205
 H         2.053264         2.053904         1.095295
 H         4.675452         1.182782         0.283602
 H         3.770243        -1.350734         1.545244
