19
Iteration:  1691
 C         4.565891        -1.035833        -1.539933
 C         3.490414        -0.518288        -0.592352
 O         2.302699        -0.044904        -1.211266
 C         1.517784         0.353216        -0.133250
 C         0.173105         0.696020        -0.659526
 C         2.361010         1.253957         0.743366
 C         3.687890         0.366319         0.692864
 C         3.007176        -1.024334         0.745203
 O         1.560690        -0.878767         0.743938
 H         4.843262        -2.127008        -1.112845
 H         4.295390        -0.975286        -2.619774
 H         5.527931        -0.458725        -1.247512
 H        -0.534635         0.633178         0.202609
 H         0.103332         1.703190        -1.236906
 H        -0.216461        -0.144717        -1.241084
 H         2.459935         2.222244         0.386193
 H         1.835341         1.307270         1.670131
 H         4.706520         0.684597         0.958091
 H         3.206004        -1.908296         1.313784
