19
Iteration:  1763charge 0 multiplicity 1
 C         4.676251        -1.036391        -1.346052
 C         3.410081        -0.459076        -0.678144
 O         2.360121        -0.071088        -1.388215
 C         1.499704         0.261831        -0.162908
 C         0.075885         0.761384        -0.435624
 C         2.409337         1.258851         0.674655
 C         3.651333         0.389570         0.670224
 C         2.994588        -1.042518         0.657616
 O         1.552950        -0.917713         0.764934
 H         4.600342        -2.037579        -1.538494
 H         4.914673        -0.494696        -2.262165
 H         5.458261        -0.947403        -0.639932
 H        -0.403810         0.898396         0.518973
 H         0.087109         1.654611        -1.016456
 H        -0.625557         0.068440        -0.918981
 H         2.496652         2.308104         0.141673
 H         1.828696         1.303142         1.692028
 H         4.720926         0.560134         0.921871
 H         3.386561        -1.850433         1.179277
