19
Iteration:  2516
 C         4.621837        -1.016296        -1.433670
 C         3.522760        -0.536739        -0.576723
 O         2.203585        -0.108342        -1.306340
 C         1.500054         0.261015        -0.120704
 C         0.017659         0.514244        -0.439819
 C         2.452119         1.401944         0.406343
 C         3.615277         0.470502         0.585579
 C         3.043103        -0.901334         0.816669
 O         1.642249        -0.925254         0.880096
 H         4.425454        -0.513922        -2.389225
 H         5.740584        -0.524656        -1.337856
 H         4.790408        -2.111547        -1.396634
 H        -0.680004         0.598246         0.388586
 H        -0.061242         1.297135        -1.185696
 H        -0.206781        -0.442828        -0.963598
 H         2.646483         2.158615        -0.419257
 H         2.190026         1.792695         1.420336
 H         4.460959         0.849033         1.101472
 H         3.562374        -1.640214         1.425210
