19
Iteration:  3058
 C         4.620651        -1.181204        -1.384992
 C         3.510436        -0.479807        -0.620910
 O         2.224856        -0.221995        -1.280089
 C         1.489697         0.299166        -0.140628
 C         0.001261         0.338901        -0.288009
 C         2.321365         1.411425         0.336656
 C         3.623644         0.660570         0.515015
 C         3.130897        -0.773630         0.818351
 O         1.702941        -0.815360         0.847113
 H         4.343301        -2.169526        -1.849782
 H         4.901341        -0.534813        -2.335196
 H         5.659341        -1.167090        -1.064562
 H        -0.358257         0.597213         0.728038
 H        -0.257189         1.061706        -1.042734
 H        -0.387112        -0.613967        -0.712942
 H         2.406828         2.080351        -0.492497
 H         1.883289         1.875541         1.177846
 H         4.554603         1.035386         1.005770
 H         3.713077        -1.620700         1.362378
