19
Iteration:  2183charge 0 multiplicity 1
 C         4.652529        -1.061990        -1.409639
 C         3.463530        -0.482125        -0.602658
 O         2.340029        -0.056386        -1.350456
 C         1.484441         0.306527        -0.190359
 C         0.007092         0.559189        -0.387509
 C         2.469373         1.309477         0.569497
 C         3.630024         0.361078         0.734702
 C         3.052525        -1.013148         0.707076
 O         1.540760        -0.801974         0.714803
 H         4.837328        -0.373380        -2.327638
 H         5.506706        -0.936659        -0.725125
 H         4.428658        -2.154363        -1.729747
 H        -0.469367         0.773359         0.578919
 H        -0.174565         1.431774        -1.027522
 H        -0.466402        -0.370360        -0.816758
 H         2.721657         2.190093        -0.155120
 H         2.089355         1.907761         1.514918
 H         4.593975         0.588458         1.211638
 H         3.404486        -1.821741         1.257949
