19
Iteration:   778charge 0 multiplicity 1
 C         4.619711        -1.157862        -1.445499
 C         3.531260        -0.484276        -0.563325
 O         2.260075        -0.431823        -1.284938
 C         1.443844         0.214077        -0.114758
 C         0.009042         0.431207        -0.360264
 C         2.263236         1.416152         0.387681
 C         3.567537         0.727444         0.373918
 C         3.154807        -0.683518         0.849113
 O         1.803130        -0.801872         0.905104
 H         5.454434        -0.381855        -1.627694
 H         5.018714        -2.133363        -1.110587
 H         4.176097        -1.216155        -2.500998
 H        -0.584662         0.566024         0.507499
 H        -0.214331         1.051997        -1.177072
 H        -0.432935        -0.488298        -0.676499
 H         2.233128         2.234207        -0.286001
 H         1.961905         1.616524         1.493568
 H         4.405038         1.138043         0.833370
 H         3.585538        -0.964319         1.771470
