19
Iteration:  1800charge 0 multiplicity 1
 C         4.591780        -1.031141        -1.467957
 C         3.513220        -0.509695        -0.589626
 O         2.347029        -0.063651        -1.287939
 C         1.491538         0.269500        -0.070379
 C         0.069891         0.683740        -0.490528
 C         2.435767         1.337920         0.658314
 C         3.597584         0.416898         0.703216
 C         3.009951        -0.980569         0.713507
 O         1.559244        -0.972207         0.666969
 H         4.181864        -1.588094        -2.397851
 H         5.380161        -0.329794        -1.740298
 H         5.196599        -1.764754        -0.827881
 H        -0.509619         1.177175         0.348710
 H         0.281913         1.558549        -1.255219
 H        -0.448388        -0.155780        -0.980889
 H         2.417526         2.181460         0.054440
 H         2.022506         1.675727         1.599943
 H         4.614700         0.642984         1.010704
 H         3.523270        -1.819365         1.314524
