19
Iteration:   230charge 0 multiplicity 1
 C         4.691188        -1.144991        -1.381860
 C         3.506791        -0.509249        -0.555102
 O         2.204299        -0.586582        -1.127017
 C         1.445096         0.165465        -0.212208
 C        -0.006808         0.015575        -0.100397
 C         2.105752         1.470163        -0.051621
 C         3.542325         0.833328         0.100695
 C         3.247780        -0.439105         0.891324
 O         1.854876        -0.527566         1.097376
 H         5.033650        -2.059354        -0.933919
 H         4.393750        -1.472509        -2.348788
 H         5.576812        -0.557661        -1.479501
 H        -0.284950         0.440829         0.878141
 H        -0.516160         0.490126        -0.945241
 H        -0.212318        -1.069583        -0.171230
 H         1.970781         2.301259        -0.805712
 H         2.000917         1.886698         0.913428
 H         4.532598         1.312894         0.032538
 H         3.854754        -0.889076         1.724430
