19
Iteration:  4544
 C         4.631335        -0.989678        -1.469591
 C         3.459589        -0.577184        -0.581680
 O         2.123155        -0.648619        -1.076372
 C         1.441911         0.074175        -0.115209
 C        -0.023321         0.179356        -0.341198
 C         2.267603         1.431178         0.079154
 C         3.598798         0.792429         0.241799
 C         3.254774        -0.512499         0.902070
 O         1.866292        -0.556342         1.096434
 H         4.490518        -2.075991        -1.769175
 H         4.674531        -0.144288        -2.306916
 H         5.636536        -1.022464        -0.971659
 H        -0.538616         0.682788         0.525265
 H        -0.158203         0.903359        -1.165508
 H        -0.530642        -0.771831        -0.405221
 H         2.196604         2.097263        -0.709340
 H         1.962871         1.970061         1.006362
 H         4.623623         1.189352         0.123608
 H         3.924899        -1.081683         1.455688
