19
Iteration:  3796
 C         4.505753        -1.079524        -1.497446
 C         3.507312        -0.486794        -0.626545
 O         2.204897        -0.368548        -1.146852
 C         1.479126         0.213430        -0.124135
 C         0.005812         0.225658        -0.463534
 C         2.306438         1.457837         0.263456
 C         3.630021         0.684428         0.366457
 C         3.201659        -0.721329         0.914337
 O         1.800162        -0.681606         1.060038
 H         5.421938        -1.292710        -0.918852
 H         4.390073        -2.083731        -1.787380
 H         4.685873        -0.448320        -2.416629
 H        -0.716286         0.465501         0.340282
 H        -0.130433         0.852771        -1.321969
 H        -0.136393        -0.824117        -0.743060
 H         2.238693         2.207949        -0.551083
 H         1.955983         1.926974         1.239125
 H         4.591893         1.038650         0.590285
 H         3.668262        -1.313593         1.651760
