19
Iteration:  2067charge 0 multiplicity 1
 C         4.666279        -1.020149        -1.331172
 C         3.415650        -0.525425        -0.635004
 O         2.288613        -0.085045        -1.323189
 C         1.553335         0.386565        -0.173705
 C         0.023253         0.593203        -0.434025
 C         2.512041         1.330832         0.604509
 C         3.646583         0.369221         0.665534
 C         2.940968        -1.067787         0.640675
 O         1.567934        -0.813931         0.781763
 H         4.524048        -1.694788        -2.145764
 H         5.234859        -0.072171        -1.753894
 H         5.238052        -1.579052        -0.601918
 H        -0.543850         0.805343         0.494505
 H        -0.194575         1.438310        -1.219766
 H        -0.170156        -0.380024        -0.952493
 H         2.575044         2.231497        -0.011776
 H         2.160592         1.752375         1.511805
 H         4.700424         0.306171         0.995503
 H         3.348920        -1.970110         0.974132
