19
Iteration:  2140
 C         4.487128        -1.030460        -1.455660
 C         3.463015        -0.491370        -0.595454
 O         2.275505        -0.088307        -1.290843
 C         1.493515         0.245597        -0.040339
 C         0.127521         0.635550        -0.656050
 C         2.452279         1.314525         0.665907
 C         3.708911         0.419637         0.703708
 C         3.036337        -0.941069         0.784472
 O         1.600493        -0.906532         0.754919
 H         4.202374        -0.836801        -2.518686
 H         5.388033        -0.451044        -1.391170
 H         4.570023        -2.145176        -1.334946
 H        -0.586900         0.844401         0.182261
 H         0.370745         1.487973        -1.342860
 H        -0.220223        -0.304638        -1.232835
 H         2.601499         2.278418         0.042576
 H         1.918144         1.593678         1.682763
 H         4.737507         0.646511         1.018181
 H         3.457139        -1.778286         1.266300
