19
Iteration:  1539charge 0 multiplicity 1
 C         4.535013        -1.056637        -1.521980
 C         3.511862        -0.565144        -0.547249
 O         2.466525        -0.073297        -1.273072
 C         1.507980         0.341342        -0.195509
 C         0.150314         0.800138        -0.533227
 C         2.340172         1.230922         0.736268
 C         3.598232         0.325152         0.703020
 C         2.944536        -1.011098         0.725729
 O         1.578426        -0.857313         0.659050
 H         5.511558        -0.659968        -1.123620
 H         4.667016        -2.077924        -1.460804
 H         4.278349        -0.718355        -2.516132
 H        -0.315941         0.755765         0.451766
 H        -0.050522         1.786464        -0.931473
 H        -0.373762         0.088700        -1.202076
 H         2.483088         2.296341         0.316014
 H         2.119597         1.153244         1.812735
 H         4.420851         0.635509         1.382581
 H         3.168280        -1.898809         1.353351
