19
Iteration:  4827
 C         4.634861        -1.031772        -1.474484
 C         3.422832        -0.518689        -0.592946
 O         2.114630        -0.531608        -1.116607
 C         1.469921         0.109893        -0.041140
 C         0.004101         0.125705        -0.353488
 C         2.302747         1.466393         0.024115
 C         3.600076         0.722191         0.255585
 C         3.322963        -0.532822         0.893266
 O         1.789552        -0.599605         1.157054
 H         5.449301        -0.784141        -0.807439
 H         4.498100        -2.090591        -1.779104
 H         4.833836        -0.524877        -2.369299
 H        -0.652261         0.436770         0.468217
 H        -0.241553         0.810642        -1.187385
 H        -0.331765        -0.872910        -0.579902
 H         2.320271         2.077932        -1.025682
 H         1.948046         2.170761         0.923762
 H         4.526113         1.220378         0.382745
 H         3.774391        -1.190260         1.486482
