19
Iteration:   140
 C         4.607523        -1.131721        -1.510088
 C         3.561602        -0.521977        -0.559859
 O         2.193501        -0.653382        -1.140851
 C         1.379307         0.152078        -0.299028
 C        -0.060112        -0.141600        -0.136311
 C         2.185696         1.476049         0.028895
 C         3.603193         0.880469         0.155688
 C         3.317254        -0.414851         1.024633
 O         1.882309        -0.375092         1.095439
 H         4.144155        -1.371541        -2.534815
 H         5.496680        -0.500204        -1.637456
 H         4.872656        -2.055595        -0.973968
 H        -0.360492         0.429655         0.779750
 H        -0.858266        -0.069901        -0.894348
 H         0.010992        -1.226108         0.166471
 H         2.066657         2.238878        -0.729282
 H         1.780336         1.944193         1.015210
 H         4.310848         1.702859         0.048028
 H         3.879378        -0.963491         1.718810
