19
Iteration:    44charge 0 multiplicity 1
 C         4.522143        -1.127286        -1.568764
 C         3.590418        -0.550297        -0.522055
 O         2.224915        -0.626202        -1.009993
 C         1.428423         0.104111        -0.099197
 C        -0.111032        -0.154099        -0.175363
 C         2.170498         1.514226        -0.110623
 C         3.592630         0.930694         0.114102
 C         3.349565        -0.347023         0.961708
 O         1.906449        -0.472012         1.115968
 H         5.265877        -0.414956        -1.847073
 H         4.973165        -2.007027        -1.213048
 H         3.873542        -1.393382        -2.353273
 H        -0.500223         0.152562         0.806107
 H        -0.671207         0.377256        -0.944967
 H        -0.280317        -1.238600        -0.264955
 H         2.031056         1.952652        -1.101462
 H         1.931237         2.161271         0.745209
 H         4.550974         1.425939         0.158543
 H         3.904476        -0.636486         1.811037
