19
Iteration:   651
 C         4.642792        -1.064921        -1.403890
 C         3.494749        -0.444281        -0.669089
 O         2.158768        -0.390809        -1.120562
 C         1.428058         0.107871        -0.041024
 C         0.041705         0.345043        -0.423754
 C         2.227377         1.491273         0.179082
 C         3.561016         0.721939         0.307121
 C         3.294453        -0.677801         0.802347
 O         1.804084        -0.864131         1.100769
 H         4.306642        -1.704895        -2.198532
 H         5.364347        -0.381484        -1.819229
 H         5.236656        -1.601870        -0.745606
 H        -0.617865         0.840037         0.300222
 H        -0.146501         1.044482        -1.332224
 H        -0.459784        -0.580558        -0.670551
 H         1.973447         2.050245        -0.766076
 H         1.928644         2.011958         1.034692
 H         4.498909         1.094473         0.636310
 H         3.911254        -1.201809         1.554284
