19
Iteration:   191
 C         4.527575        -1.148475        -1.406649
 C         3.521120        -0.403670        -0.608396
 O         2.137807        -0.592909        -1.011749
 C         1.450635         0.025237        -0.019399
 C        -0.013526         0.092904        -0.374567
 C         2.115407         1.438620        -0.092534
 C         3.508737         0.937141         0.138934
 C         3.373628        -0.417066         0.896302
 O         2.038526        -0.644829         1.237962
 H         4.042907        -2.150396        -1.542234
 H         4.705514        -0.633254        -2.392861
 H         5.486569        -1.267264        -0.829409
 H        -0.712519         0.485918         0.343082
 H        -0.133070         0.645792        -1.342926
 H        -0.300275        -0.918854        -0.630441
 H         1.862981         1.866401        -1.053180
 H         1.549666         2.046521         0.661087
 H         4.412110         1.454731        -0.028004
 H         4.154753        -0.775076         1.490253
