19
Iteration:   948charge 0 multiplicity 1
 C         4.622026        -0.993045        -1.440913
 C         3.495621        -0.501848        -0.563151
 O         2.270576        -0.239584        -1.291313
 C         1.473994         0.264755        -0.144809
 C         0.020335         0.379328        -0.403847
 C         2.431686         1.413476         0.408421
 C         3.658209         0.542128         0.521943
 C         3.047865        -0.893312         0.846964
 O         1.621272        -0.776857         0.883067
 H         5.631198        -0.874772        -0.959171
 H         4.499336        -2.084347        -1.877104
 H         4.721711        -0.415778        -2.441364
 H        -0.679050         0.562725         0.451530
 H        -0.220669         1.128254        -1.183819
 H        -0.348012        -0.592398        -0.895144
 H         2.644596         2.182950        -0.309412
 H         2.312285         1.854540         1.357834
 H         4.584782         0.961242         0.888364
 H         3.266626        -1.748392         1.481657
