19
Iteration:  4859
 C         4.661663        -0.966605        -1.401835
 C         3.498537        -0.574400        -0.578850
 O         2.159676        -0.647752        -1.159294
 C         1.434371         0.034207        -0.173756
 C        -0.045218         0.239799        -0.231566
 C         2.256252         1.435308         0.016284
 C         3.579518         0.792747         0.149544
 C         3.294975        -0.520915         0.948968
 O         1.821180        -0.596887         1.111150
 H         5.453745        -1.470574        -0.844037
 H         4.344861        -1.787339        -2.068442
 H         5.019117        -0.096425        -1.878595
 H        -0.387350         0.622812         0.756328
 H        -0.333927         0.978815        -1.018778
 H        -0.716541        -0.549826        -0.557247
 H         2.195105         2.218907        -0.849750
 H         1.894518         1.751530         1.061484
 H         4.533609         1.195992         0.428990
 H         3.826600        -0.992306         1.675584
