19
Iteration:  2607
 C         4.616123        -1.071559        -1.416693
 C         3.485327        -0.462955        -0.655419
 O         2.308170        -0.171140        -1.311801
 C         1.481401         0.270842        -0.207188
 C        -0.050912         0.397186        -0.376128
 C         2.413049         1.439652         0.478767
 C         3.658053         0.532950         0.635799
 C         3.059442        -0.856255         0.778155
 O         1.640081        -0.839810         0.799570
 H         5.427852        -0.289750        -1.443150
 H         5.042938        -1.841530        -0.806490
 H         4.151306        -1.585729        -2.322386
 H        -0.354824         0.765408         0.675647
 H        -0.418712         0.999310        -1.298952
 H        -0.189936        -0.749872        -0.354169
 H         2.701442         2.229665        -0.155240
 H         2.016926         1.797643         1.397979
 H         4.664077         0.841447         1.005369
 H         3.516143        -1.737056         1.314175
