19
Iteration:  1167charge 0 multiplicity 1
 C         4.633041        -0.994560        -1.531232
 C         3.514627        -0.538103        -0.528806
 O         2.314001        -0.074551        -1.270939
 C         1.491160         0.357807        -0.220585
 C        -0.048421         0.484106        -0.494261
 C         2.502526         1.330017         0.565267
 C         3.653596         0.407439         0.720978
 C         2.981632        -1.019111         0.770379
 O         1.613136        -0.787470         0.772042
 H         5.613984        -1.332647        -0.989670
 H         4.268229        -1.823854        -2.147501
 H         5.001000        -0.149139        -2.209421
 H        -0.466170         0.609070         0.484755
 H        -0.450202         1.329031        -1.101977
 H        -0.318631        -0.414348        -0.937119
 H         2.770324         2.269803         0.075600
 H         1.882079         1.532154         1.423497
 H         4.529593         0.572844         1.300417
 H         3.279502        -1.878841         1.372934
