19
Iteration:  4808
 C         4.528802        -1.146096        -1.442930
 C         3.498428        -0.429965        -0.566397
 O         2.190862        -0.450843        -1.201012
 C         1.433516         0.181391        -0.076065
 C        -0.032625         0.049956        -0.343168
 C         2.297476         1.477689         0.102802
 C         3.626469         0.808726         0.249016
 C         3.232662        -0.595691         0.921130
 O         1.890730        -0.635507         1.114892
 H         5.573171        -0.829231        -1.259101
 H         4.336798        -2.265746        -1.295451
 H         4.279192        -0.873063        -2.486592
 H        -0.654865         0.449326         0.416380
 H        -0.317142         0.548372        -1.240864
 H        -0.374460        -0.959104        -0.578806
 H         2.247623         1.905860        -0.896538
 H         1.935313         2.104878         0.966023
 H         4.587117         1.385613         0.498466
 H         3.754423        -0.986215         1.807348
