19
Iteration:  4978charge 0 multiplicity 1
 C         4.575095        -1.120720        -1.419671
 C         3.481705        -0.461476        -0.610176
 O         2.222349        -0.555295        -1.139729
 C         1.499197         0.039136        -0.062417
 C         0.052828         0.231794        -0.278572
 C         2.214035         1.458379         0.016374
 C         3.510038         0.836885         0.255927
 C         3.223610        -0.532777         0.917104
 O         1.867293        -0.663211         1.058787
 H         5.534019        -0.587982        -1.151215
 H         4.755446        -2.259680        -1.219670
 H         4.225922        -0.862738        -2.503108
 H        -0.507284         0.775876         0.548104
 H        -0.249308         0.683768        -1.299562
 H        -0.536885        -0.766302        -0.284166
 H         2.215186         1.956642        -0.977119
 H         1.768314         2.108725         0.749591
 H         4.500279         1.308924         0.604794
 H         3.869983        -1.032502         1.688677
