19
Iteration:  4150charge 0 multiplicity 1
 C         4.593548        -1.198363        -1.340423
 C         3.480171        -0.433728        -0.655011
 O         2.151597        -0.337004        -1.283695
 C         1.453270         0.196287        -0.076582
 C        -0.014643         0.071614        -0.299826
 C         2.331823         1.508414         0.181564
 C         3.589324         0.745295         0.306983
 C         3.275328        -0.630938         0.834342
 O         1.798803        -0.658259         1.055688
 H         4.954356        -0.655961        -2.168832
 H         5.255726        -1.433865        -0.593316
 H         4.238226        -2.193718        -1.576241
 H        -0.618690         0.550721         0.522137
 H        -0.360993         0.615732        -1.226363
 H        -0.418109        -0.986692        -0.502761
 H         2.391564         2.269759        -0.661807
 H         2.077932         1.992021         1.200290
 H         4.587284         1.269297         0.364540
 H         3.863626        -1.350702         1.554487
