19
Iteration:  4839charge 0 multiplicity 1
 C         4.634728        -0.961735        -1.418659
 C         3.480866        -0.561069        -0.619002
 O         2.159646        -0.647507        -1.105589
 C         1.440804         0.202960        -0.044556
 C        -0.035685         0.198546        -0.324070
 C         2.248992         1.425013         0.069806
 C         3.596334         0.784913         0.175874
 C         3.249118        -0.668996         0.907771
 O         1.843292        -0.560904         1.107343
 H         5.526763        -1.136135        -0.827206
 H         4.535275        -1.988732        -1.880896
 H         4.781416        -0.226443        -2.151351
 H        -0.526251         0.485303         0.584499
 H        -0.244400         0.864344        -1.150233
 H        -0.248035        -0.825741        -0.599012
 H         2.176246         1.998564        -0.972789
 H         1.875341         2.162431         0.931617
 H         4.563992         1.344945         0.093467
 H         3.812733        -1.137619         1.666437
