19
Iteration:  4618
 C         4.526123        -1.278675        -1.311827
 C         3.514093        -0.463106        -0.698926
 O         2.175692        -0.425832        -1.204033
 C         1.451401         0.143011        -0.073173
 C        -0.015444         0.025387        -0.292151
 C         2.226786         1.482317         0.208927
 C         3.645157         0.887455         0.262711
 C         3.275751        -0.488220         0.829659
 O         1.840544        -0.598787         1.016126
 H         4.930544        -2.160706        -0.814302
 H         4.028321        -1.451140        -2.299512
 H         5.444859        -0.723373        -1.719675
 H        -0.651734         0.455818         0.484221
 H        -0.263030         0.434233        -1.264683
 H        -0.145879        -1.058045        -0.347056
 H         2.196305         2.306672        -0.670118
 H         1.909426         1.762299         1.270996
 H         4.613091         1.407852         0.437750
 H         3.876286        -1.021899         1.505724
