19
Iteration:  3689charge 0 multiplicity 1
 C         4.545532        -1.210820        -1.458542
 C         3.437532        -0.511060        -0.616188
 O         2.172521        -0.380189        -1.253659
 C         1.504180         0.219088        -0.145492
 C        -0.020058         0.141523        -0.424103
 C         2.270453         1.465117         0.320969
 C         3.682681         0.734919         0.344364
 C         3.230124        -0.613949         0.886921
 O         1.818593        -0.618159         1.075605
 H         5.029096        -2.039078        -0.849668
 H         4.160396        -1.450721        -2.516123
 H         5.438922        -0.442961        -1.657924
 H        -0.481032         0.665288         0.429956
 H        -0.238639         0.684202        -1.305243
 H        -0.270213        -0.874325        -0.687526
 H         2.011541         2.297558        -0.340808
 H         1.927690         1.657965         1.297481
 H         4.647019         1.238457         0.590873
 H         3.795500        -1.208461         1.671988
