19
Iteration:  4357charge 0 multiplicity 1
 C         4.490100        -1.031145        -1.425084
 C         3.491489        -0.476400        -0.588995
 O         2.151990        -0.519019        -1.145829
 C         1.459614         0.110810        -0.023581
 C        -0.040172         0.151188        -0.394201
 C         2.236666         1.500449         0.043361
 C         3.608094         0.693139         0.238897
 C         3.290779        -0.637450         0.916345
 O         1.885925        -0.594200         1.134709
 H         4.972770        -1.915367        -1.016323
 H         4.208939        -1.019466        -2.482580
 H         5.445883        -0.451610        -1.434104
 H        -0.560404         0.628084         0.461163
 H        -0.006182         0.826827        -1.265523
 H        -0.333104        -0.961251        -0.477305
 H         2.318683         1.993367        -0.946978
 H         2.113482         2.071921         0.894797
 H         4.505735         1.305989         0.278011
 H         3.968524        -1.149264         1.654426
