19
Iteration:   987
 C         4.634680        -1.048274        -1.546337
 C         3.560851        -0.445245        -0.593765
 O         2.204240        -0.364142        -1.250322
 C         1.460173         0.211447        -0.140120
 C         0.076358         0.654876        -0.558604
 C         2.313226         1.398963         0.497776
 C         3.566035         0.607573         0.578558
 C         3.131777        -0.920838         0.847605
 O         1.708623        -0.915468         0.957292
 H         5.437796        -0.335075        -1.726061
 H         5.201997        -1.884019        -1.162675
 H         4.121335        -1.195048        -2.444611
 H        -0.474032         0.876823         0.349857
 H         0.266394         1.453028        -1.270213
 H        -0.487864        -0.130211        -1.037623
 H         2.364894         2.261988        -0.270601
 H         1.715649         1.688308         1.459125
 H         4.380321         1.118877         1.010362
 H         3.631799        -1.646775         1.439174
