19
Iteration:  4855charge 0 multiplicity 1
 C         4.654975        -0.977783        -1.393826
 C         3.499880        -0.550008        -0.521976
 O         2.145777        -0.663576        -1.163549
 C         1.449264         0.042779        -0.163618
 C        -0.046789         0.240414        -0.237556
 C         2.248162         1.464123         0.014546
 C         3.590865         0.772981         0.135718
 C         3.262943        -0.574556         0.906197
 O         1.853734        -0.577780         1.104884
 H         5.554435        -1.322334        -0.813628
 H         4.280969        -1.725072        -2.084140
 H         4.996340         0.010095        -1.912374
 H        -0.496083         0.620214         0.715621
 H        -0.349656         0.970381        -1.036345
 H        -0.715103        -0.576160        -0.595195
 H         2.081705         2.146687        -0.725168
 H         2.032732         1.726952         0.972230
 H         4.538117         1.192224         0.413495
 H         3.858004        -0.959087         1.810581
