19
Iteration:  4840
 C         4.631756        -0.960203        -1.408950
 C         3.491950        -0.559937        -0.614109
 O         2.158019        -0.654337        -1.109425
 C         1.444274         0.200917        -0.048417
 C        -0.045779         0.203444        -0.322337
 C         2.245965         1.424201         0.068701
 C         3.595007         0.782809         0.172329
 C         3.234595        -0.672615         0.905094
 O         1.852496        -0.558315         1.103257
 H         5.535049        -1.147594        -0.828454
 H         4.527101        -1.972774        -1.917615
 H         4.779462        -0.200803        -2.155457
 H        -0.512959         0.490301         0.582275
 H        -0.218120         0.886453        -1.123171
 H        -0.243258        -0.834490        -0.579676
 H         2.142919         2.011435        -0.933737
 H         1.888041         2.158617         0.919003
 H         4.593229         1.357070         0.089331
 H         3.848541        -1.127862         1.706446
