19
Iteration:   992charge 0 multiplicity 1
 C         4.656412        -1.036631        -1.542920
 C         3.552233        -0.448812        -0.557925
 O         2.201345        -0.364072        -1.265396
 C         1.443713         0.191950        -0.137369
 C         0.080858         0.631598        -0.562627
 C         2.298828         1.395187         0.541445
 C         3.605071         0.588471         0.576800
 C         3.131581        -0.891237         0.828917
 O         1.687557        -0.870754         0.943494
 H         5.450772        -0.337840        -1.923106
 H         5.298957        -1.947562        -1.187619
 H         4.110508        -1.424830        -2.503482
 H        -0.477657         0.924514         0.348845
 H         0.243304         1.464534        -1.281633
 H        -0.622085        -0.076403        -1.082190
 H         2.227596         2.204259        -0.125736
 H         1.741597         1.565819         1.402578
 H         4.560860         1.071053         0.958028
 H         3.699768        -1.613154         1.469971
