19
Iteration:  3080charge 0 multiplicity 1
 C         4.488896        -1.107023        -1.445393
 C         3.541605        -0.444734        -0.596813
 O         2.334718        -0.263563        -1.284915
 C         1.479871         0.202724        -0.206479
 C        -0.066211         0.284817        -0.366717
 C         2.339921         1.433580         0.400132
 C         3.593853         0.622810         0.445039
 C         3.152750        -0.776617         0.884284
 O         1.747576        -0.739616         0.907433
 H         3.736427        -1.716175        -2.034861
 H         5.302587        -0.520345        -2.069201
 H         5.245397        -1.678162        -0.890151
 H        -0.374353         0.663836         0.619045
 H        -0.156857         1.080129        -1.081051
 H        -0.549073        -0.625676        -0.817975
 H         2.361096         2.291288        -0.233298
 H         2.186261         1.679748         1.423130
 H         4.596861         1.044653         0.794854
 H         3.651639        -1.504330         1.631921
