19
Iteration:  4991
 C         4.657958        -1.041373        -1.450167
 C         3.553685        -0.564540        -0.533080
 O         2.197647        -0.633051        -1.161413
 C         1.437890         0.147006        -0.170010
 C        -0.054476         0.259808        -0.256358
 C         2.179347         1.455977         0.008866
 C         3.606653         0.865608         0.256198
 C         3.256987        -0.617171         0.884152
 O         1.798192        -0.650952         1.142231
 H         5.599684        -0.475767        -1.289130
 H         4.845821        -2.190515        -1.270909
 H         4.543804        -0.973758        -2.526605
 H        -0.222301         0.857872         0.635853
 H        -0.259697         0.876717        -1.114733
 H        -0.520371        -0.779177        -0.276880
 H         2.049721         2.019033        -0.977821
 H         1.699974         1.993201         0.919607
 H         4.492436         1.484424         0.295856
 H         3.863947        -1.092233         1.721751
