19
Iteration:   790
 C         4.603415        -1.049547        -1.438237
 C         3.519072        -0.506567        -0.577835
 O         2.238297        -0.357948        -1.239207
 C         1.479041         0.196096        -0.170308
 C        -0.047556         0.356021        -0.386837
 C         2.300617         1.406522         0.305508
 C         3.650914         0.674889         0.421396
 C         3.205087        -0.721132         0.921795
 O         1.705946        -0.786234         0.920825
 H         5.373203        -0.306179        -1.797314
 H         5.174303        -1.875778        -0.898356
 H         4.057785        -1.575390        -2.267321
 H        -0.307147         0.752103         0.558106
 H        -0.283090         1.195904        -1.027044
 H        -0.462473        -0.564211        -0.640018
 H         2.221081         2.208409        -0.387708
 H         1.881580         1.805153         1.244718
 H         4.640955         1.074413         0.565272
 H         3.751373        -1.438151         1.513573
