19
Iteration:   212charge 0 multiplicity 1
 C         4.581579        -1.190863        -1.399249
 C         3.558099        -0.483348        -0.631664
 O         2.229930        -0.765401        -1.150878
 C         1.451826         0.031765        -0.111321
 C        -0.072989         0.073638        -0.243154
 C         2.151558         1.438750         0.091958
 C         3.546359         0.974331         0.092545
 C         3.339268        -0.334637         0.942741
 O         1.913040        -0.512776         1.084984
 H         4.566014        -2.266963        -1.199796
 H         4.283684        -0.931483        -2.444573
 H         5.558329        -0.691886        -1.175087
 H        -0.416181         0.493469         0.687803
 H        -0.479735         0.755576        -1.053151
 H        -0.685586        -0.800570        -0.384421
 H         1.942478         2.191103        -0.686397
 H         1.713382         1.899937         1.036353
 H         4.347129         1.635674         0.321484
 H         3.909255        -0.709036         1.729364
