19
Iteration:  2567
 C         4.525878        -0.979349        -1.555751
 C         3.476831        -0.529709        -0.564021
 O         2.260209        -0.243984        -1.224273
 C         1.524921         0.250959        -0.102052
 C         0.090789         0.549648        -0.589520
 C         2.356985         1.393364         0.480431
 C         3.643376         0.566827         0.597354
 C         3.088152        -0.830478         0.872581
 O         1.675610        -0.948549         0.920095
 H         5.105879        -0.206403        -2.068443
 H         5.324291        -1.571059        -1.073412
 H         4.202051        -1.735788        -2.255742
 H        -0.449839         0.738306         0.339381
 H         0.042437         1.313434        -1.430272
 H        -0.429735        -0.264425        -1.063047
 H         2.187188         2.140929        -0.385290
 H         1.944075         1.598774         1.516018
 H         4.634749         0.850184         0.867695
 H         3.663779        -1.594510         1.434405
