19
Iteration:  2344
 C         4.691731        -1.066393        -1.320038
 C         3.478844        -0.447617        -0.703491
 O         2.269070        -0.081855        -1.226868
 C         1.439859         0.217287        -0.075855
 C        -0.031850         0.651082        -0.472854
 C         2.364536         1.337512         0.518823
 C         3.676299         0.456381         0.485028
 C         3.097863        -0.936881         0.695270
 O         1.631312        -0.942843         0.808839
 H         4.871031        -2.031013        -0.714062
 H         4.650069        -1.352882        -2.309778
 H         5.644596        -0.499298        -1.173399
 H        -0.541006         0.991187         0.491289
 H         0.097875         1.625292        -1.035958
 H        -0.628429        -0.212573        -0.974159
 H         2.404600         2.211289        -0.015817
 H         1.979271         1.599194         1.461014
 H         4.628614         0.686752         1.023414
 H         3.557448        -1.911539         1.080587
