19
Iteration:  1352charge 0 multiplicity 1
 C         4.629565        -1.068790        -1.395069
 C         3.518273        -0.414740        -0.586152
 O         2.345140         0.026008        -1.266563
 C         1.486976         0.266117        -0.095620
 C         0.112918         0.722316        -0.431579
 C         2.356947         1.327773         0.561930
 C         3.543218         0.337163         0.748831
 C         3.026071        -1.108134         0.666770
 O         1.609218        -0.958051         0.639811
 H         3.973195        -1.905486        -1.719134
 H         5.068819        -0.644109        -2.217913
 H         5.405338        -1.407331        -0.708940
 H        -0.306710         1.009870         0.539539
 H         0.267884         1.701574        -0.926623
 H        -0.435392         0.125968        -1.152745
 H         2.414256         2.094444        -0.360879
 H         1.803639         1.754316         1.495019
 H         4.605037         0.602557         0.977434
 H         3.527328        -1.912704         1.142507
