19
Iteration:  4359
 C         4.483041        -1.014981        -1.423140
 C         3.496169        -0.475893        -0.591353
 O         2.158757        -0.527830        -1.135348
 C         1.472909         0.119014        -0.022845
 C        -0.033554         0.159826        -0.393973
 C         2.235598         1.497734         0.027374
 C         3.600044         0.672572         0.243525
 C         3.291175        -0.625606         0.906187
 O         1.884669        -0.597989         1.132851
 H         4.932134        -1.922268        -1.000606
 H         4.165449        -0.953117        -2.495993
 H         5.352002        -0.471715        -1.398076
 H        -0.558427         0.636911         0.506440
 H        -0.075696         0.841338        -1.343002
 H        -0.286178        -0.991853        -0.478119
 H         2.313482         1.867729        -0.974727
 H         2.142204         2.120719         0.954127
 H         4.470106         1.313134         0.347641
 H         3.986752        -1.174691         1.660881
