19
Iteration:  4370
 C         4.535311        -0.989559        -1.471794
 C         3.443034        -0.509296        -0.575460
 O         2.177923        -0.567656        -1.075988
 C         1.477476         0.184934        -0.067245
 C         0.048050         0.192502        -0.354539
 C         2.311341         1.398907         0.003162
 C         3.576329         0.764866         0.294177
 C         3.267344        -0.577454         0.896314
 O         1.855986        -0.636351         1.123366
 H         4.592604        -2.080738        -1.409768
 H         4.093477        -0.909687        -2.501575
 H         5.322919        -0.352047        -1.344100
 H        -0.613456         0.564033         0.493796
 H        -0.416271         0.607900        -1.307426
 H        -0.292701        -0.917497        -0.539649
 H         2.220250         1.785096        -0.995163
 H         1.939546         2.264859         0.600545
 H         4.511069         1.197719         0.630866
 H         3.882960        -1.228064         1.611513
