19
Iteration:  2999
 C         4.652049        -1.020783        -1.603109
 C         3.472227        -0.490207        -0.629029
 O         2.253718        -0.357814        -1.218338
 C         1.506361         0.235390        -0.159155
 C         0.044994         0.438222        -0.469696
 C         2.322555         1.417732         0.434768
 C         3.591737         0.559378         0.510879
 C         3.129179        -0.866552         0.888204
 O         1.686171        -0.773490         0.961233
 H         5.088799        -1.894231        -1.132740
 H         4.067521        -1.219309        -2.470848
 H         5.454480        -0.237256        -1.549485
 H        -0.384423         0.911837         0.391574
 H         0.085178         1.316631        -1.161600
 H        -0.565774        -0.383495        -0.761333
 H         2.305145         2.378249        -0.200586
 H         1.776147         1.714953         1.437764
 H         4.628589         0.776466         0.833745
 H         3.559607        -1.301757         1.727561
