19
Iteration:   978
 C         4.573072        -0.987203        -1.501649
 C         3.507412        -0.479972        -0.610083
 O         2.244415        -0.307241        -1.179397
 C         1.514609         0.222308        -0.143350
 C         0.089367         0.628745        -0.529447
 C         2.287242         1.360324         0.369755
 C         3.530488         0.574665         0.590420
 C         3.127521        -0.884141         0.843294
 O         1.741759        -0.958162         0.931828
 H         5.370802        -0.238069        -1.433511
 H         4.810411        -2.079245        -1.092210
 H         4.193232        -1.038558        -2.529354
 H        -0.514497         1.020065         0.292715
 H         0.105748         1.479706        -1.144214
 H        -0.278489        -0.257843        -1.055067
 H         2.577673         2.196418        -0.325757
 H         2.086889         1.852931         1.289247
 H         4.395306         0.972823         0.996689
 H         3.598678        -1.642530         1.415085
