19
Iteration:   916charge 0 multiplicity 1
 C         4.609463        -1.110127        -1.399506
 C         3.470735        -0.474663        -0.602288
 O         2.246213        -0.195377        -1.341871
 C         1.457820         0.261982        -0.167986
 C         0.030034         0.307453        -0.390424
 C         2.349844         1.426750         0.471980
 C         3.659849         0.570867         0.538231
 C         3.094475        -0.843746         0.803423
 O         1.714498        -0.711375         0.863304
 H         4.981620        -2.044315        -0.950793
 H         4.287589        -1.584640        -2.364872
 H         5.447353        -0.369569        -1.569368
 H        -0.517210         0.513571         0.573402
 H        -0.149088         1.000625        -1.234859
 H        -0.352254        -0.743600        -0.712310
 H         2.479789         2.285172        -0.172283
 H         2.066683         1.685186         1.484982
 H         4.563090         1.060708         0.838593
 H         3.435803        -1.700774         1.393637
