19
Iteration:  2953
 C         4.508470        -1.077108        -1.495053
 C         3.465383        -0.496532        -0.618994
 O         2.305712        -0.182503        -1.267575
 C         1.485791         0.255009        -0.107281
 C         0.025342         0.376033        -0.496794
 C         2.364916         1.443560         0.448563
 C         3.597318         0.527721         0.555761
 C         3.132630        -0.842600         0.820263
 O         1.711992        -0.822532         0.926918
 H         5.386348        -1.148914        -0.779608
 H         4.140059        -2.033824        -1.849713
 H         4.856078        -0.336733        -2.246441
 H        -0.606144         0.792632         0.313290
 H        -0.020177         1.121285        -1.279066
 H        -0.203634        -0.708216        -0.587201
 H         2.549429         2.245483        -0.358325
 H         2.080294         2.060435         1.361109
 H         4.644313         0.823906         0.883549
 H         3.612854        -1.720415         1.390701
