19
Iteration:  4319charge 0 multiplicity 1
 C         4.566899        -1.242886        -1.396932
 C         3.522879        -0.398099        -0.625463
 O         2.229026        -0.500742        -1.208795
 C         1.446630         0.159970        -0.105735
 C        -0.026603         0.106444        -0.228386
 C         2.193276         1.517386         0.169207
 C         3.542138         0.822062         0.216079
 C         3.308136        -0.593429         0.871266
 O         1.867195        -0.618576         0.989161
 H         4.849731        -2.074536        -0.695379
 H         4.061139        -1.698377        -2.301221
 H         5.421297        -0.569931        -1.702920
 H        -0.456728         0.714237         0.555823
 H        -0.289358         0.641382        -1.152125
 H        -0.480316        -0.811015        -0.415607
 H         2.135441         2.445150        -0.466592
 H         1.913019         1.700059         1.301133
 H         4.497601         1.298129         0.467790
 H         3.856965        -0.944238         1.796197
