19
Iteration:  2575
 C         4.561305        -1.025001        -1.536983
 C         3.510871        -0.492328        -0.569317
 O         2.290966        -0.154267        -1.170435
 C         1.471381         0.176779        -0.121189
 C         0.122206         0.516080        -0.537055
 C         2.330555         1.395674         0.425513
 C         3.595119         0.517980         0.560893
 C         3.107360        -0.889460         0.843404
 O         1.670410        -0.914445         0.906886
 H         5.104562        -0.205942        -2.064776
 H         5.161088        -1.637760        -0.950679
 H         4.084724        -1.519334        -2.417991
 H        -0.537817         0.890853         0.323031
 H         0.009561         1.381037        -1.303370
 H        -0.422373        -0.438088        -0.928988
 H         2.394545         2.156552        -0.304446
 H         2.009135         1.948043         1.280844
 H         4.543259         0.981865         0.918770
 H         3.569479        -1.613372         1.562856
