19
Iteration:  3693charge 0 multiplicity 1
 C         4.561829        -1.193938        -1.444864
 C         3.457781        -0.522018        -0.619682
 O         2.167955        -0.376259        -1.253075
 C         1.495763         0.231141        -0.163044
 C        -0.013003         0.142493        -0.402769
 C         2.267845         1.437134         0.327826
 C         3.694415         0.753016         0.330510
 C         3.195464        -0.634917         0.909776
 O         1.822628        -0.597075         1.050891
 H         5.103976        -1.995737        -1.001975
 H         4.210767        -1.440256        -2.474238
 H         5.395426        -0.645171        -1.683977
 H        -0.439221         0.572238         0.564609
 H        -0.234416         0.760198        -1.370480
 H        -0.300143        -0.971280        -0.511814
 H         2.134148         2.336880        -0.363255
 H         1.784868         1.592721         1.331553
 H         4.597940         1.219569         0.515387
 H         3.660364        -1.156403         1.654819
