19
Iteration:  2517
 C         4.629687        -1.011389        -1.441188
 C         3.513320        -0.536997        -0.573310
 O         2.203974        -0.116386        -1.306367
 C         1.496555         0.264147        -0.122104
 C         0.034216         0.522862        -0.441541
 C         2.440791         1.405581         0.415455
 C         3.625548         0.470705         0.575501
 C         3.040221        -0.901892         0.815152
 O         1.642079        -0.924235         0.896558
 H         4.436418        -0.522601        -2.393123
 H         5.710643        -0.560134        -1.332191
 H         4.801725        -2.105013        -1.447619
 H        -0.704473         0.582128         0.376037
 H        -0.052838         1.267420        -1.224642
 H        -0.214192        -0.439177        -1.023618
 H         2.633821         2.129414        -0.356104
 H         2.153624         1.762036         1.392106
 H         4.466368         0.861926         1.108834
 H         3.543961        -1.636449         1.398470
