19
Iteration:  4482charge 0 multiplicity 1
 C         4.510253        -1.198233        -1.431563
 C         3.511530        -0.461034        -0.593679
 O         2.251662        -0.545572        -1.203263
 C         1.487433         0.164524        -0.179021
 C        -0.036203         0.039888        -0.220578
 C         2.207140         1.504887         0.113317
 C         3.551835         0.811612         0.287621
 C         3.274104        -0.472572         0.887983
 O         1.868569        -0.572256         1.055268
 H         3.946852        -1.649183        -2.271985
 H         5.253609        -0.630849        -1.982498
 H         4.996873        -1.908027        -0.852520
 H        -0.373182         0.542448         0.739973
 H        -0.477112         0.442272        -1.198294
 H        -0.166424        -1.030401        -0.358999
 H         2.162530         2.250308        -0.700673
 H         1.901850         1.823381         1.131961
 H         4.538325         1.301189         0.372255
 H         3.907542        -0.673946         1.799162
