19
Iteration:  3126
 C         4.551663        -1.052377        -1.482195
 C         3.489862        -0.449287        -0.590470
 O         2.186731        -0.321230        -1.231669
 C         1.444619         0.174090        -0.051779
 C         0.000067         0.364730        -0.515630
 C         2.345481         1.454772         0.328045
 C         3.638838         0.588985         0.413442
 C         3.179638        -0.799138         0.868592
 O         1.788356        -0.783056         1.054153
 H         3.980452        -0.958801        -2.450214
 H         5.465659        -0.425993        -1.342798
 H         4.931791        -2.010945        -1.195069
 H        -0.591341         0.769176         0.339394
 H         0.009444         1.095080        -1.372149
 H        -0.327860        -0.604426        -0.940348
 H         2.518782         2.142037        -0.472164
 H         1.993441         1.916819         1.158707
 H         4.575165         1.033751         0.711267
 H         3.722439        -1.425899         1.448136
