19
Iteration:   462
 C         4.548500        -1.134484        -1.479750
 C         3.506577        -0.492920        -0.574228
 O         2.240745        -0.499214        -1.232936
 C         1.495979         0.142711        -0.139146
 C         0.006739         0.016144        -0.328794
 C         2.286981         1.466280         0.206740
 C         3.607215         0.848837         0.187955
 C         3.207403        -0.571518         0.907528
 O         1.768286        -0.532497         1.126075
 H         4.637224        -2.156722        -1.161369
 H         4.249595        -0.870169        -2.487016
 H         5.499164        -0.639144        -1.217298
 H        -0.353023         0.670567         0.576929
 H        -0.420247         0.564882        -1.207210
 H        -0.245204        -1.116981        -0.225570
 H         2.123101         2.151530        -0.572297
 H         1.904410         1.683946         1.267614
 H         4.539310         1.327140         0.387374
 H         3.694897        -1.156112         1.662549
