19
Iteration:   349charge 0 multiplicity 1
 C         4.567373        -1.094318        -1.388655
 C         3.441046        -0.519010        -0.570936
 O         2.137413        -0.453941        -1.199953
 C         1.492118         0.162448        -0.010456
 C        -0.019958         0.000072        -0.275398
 C         2.228902         1.459549        -0.033734
 C         3.552424         0.802869         0.208111
 C         3.327398        -0.528005         0.905237
 O         1.867847        -0.589558         1.151734
 H         4.978097        -0.334112        -2.123246
 H         5.417580        -1.184661        -0.663354
 H         4.479039        -2.041451        -1.989555
 H        -0.524483         0.436128         0.562287
 H        -0.210581         0.452511        -1.265677
 H        -0.150642        -1.065848        -0.342094
 H         2.207349         1.826897        -1.104658
 H         1.970011         2.227626         0.604361
 H         4.485159         1.331423         0.190639
 H         3.872758        -1.104414         1.582325
