19
Iteration:  3411charge 0 multiplicity 1
 C         4.533763        -1.105655        -1.449948
 C         3.470591        -0.503255        -0.599498
 O         2.165459        -0.395798        -1.203613
 C         1.426828         0.210352        -0.098509
 C         0.005127         0.215239        -0.379572
 C         2.313510         1.455282         0.201782
 C         3.654440         0.710389         0.386704
 C         3.262572        -0.695039         0.890262
 O         1.818755        -0.670816         1.061089
 H         5.072756        -1.822700        -0.814675
 H         4.010547        -1.366837        -2.373281
 H         5.264525        -0.325080        -1.901024
 H        -0.661282         0.527640         0.366535
 H        -0.157336         0.789850        -1.271081
 H        -0.322554        -0.721125        -0.712789
 H         2.304712         2.043326        -0.693372
 H         2.040039         2.011661         1.054559
 H         4.655205         1.090028         0.400259
 H         3.727924        -1.359924         1.498029
