19
Iteration:  1458charge 0 multiplicity 1
 C         4.586159        -1.029818        -1.470324
 C         3.514124        -0.523968        -0.603637
 O         2.381134        -0.137603        -1.275800
 C         1.528709         0.310835        -0.217294
 C         0.165811         0.816973        -0.490842
 C         2.348179         1.253276         0.673933
 C         3.580645         0.368795         0.720450
 C         3.005385        -0.996865         0.720424
 O         1.518256        -0.903442         0.713777
 H         5.317696        -1.652822        -0.930709
 H         4.144692        -1.645058        -2.389479
 H         5.288620        -0.269133        -1.916796
 H        -0.377119         1.020971         0.459419
 H         0.321001         1.752737        -1.125706
 H        -0.430869         0.015750        -0.942226
 H         2.676964         2.182535         0.465633
 H         1.663810         1.348245         1.485536
 H         4.471290         0.550627         1.355766
 H         3.463945        -1.793257         1.204703
