19
Iteration:  1138charge 0 multiplicity 1
 C         4.578080        -0.919553        -1.489984
 C         3.457237        -0.536474        -0.538901
 O         2.297472        -0.158917        -1.272160
 C         1.520124         0.302802        -0.038628
 C         0.140367         0.548999        -0.535835
 C         2.434472         1.333566         0.517686
 C         3.612433         0.432228         0.628257
 C         3.002534        -0.974407         0.804206
 O         1.592884        -0.859665         0.789699
 H         4.991129        -1.939707        -1.461856
 H         4.200665        -0.853831        -2.498038
 H         5.388936        -0.214740        -1.604123
 H        -0.612667         0.617164         0.291642
 H         0.115433         1.458200        -1.156525
 H        -0.036985        -0.342065        -1.198425
 H         2.472592         2.179515        -0.145051
 H         1.911847         1.584101         1.439246
 H         4.620261         0.494696         1.008345
 H         3.438761        -1.685522         1.560113
