19
Iteration:  4584
 C         4.613940        -1.242277        -1.381263
 C         3.486615        -0.443352        -0.585918
 O         2.177548        -0.371280        -1.203815
 C         1.468343         0.073051        -0.076088
 C        -0.001145         0.106838        -0.227345
 C         2.237864         1.467225         0.056051
 C         3.573137         0.815721         0.301930
 C         3.295535        -0.519180         0.847277
 O         1.845768        -0.668825         1.032420
 H         4.691337        -2.273441        -1.056590
 H         4.164208        -1.203028        -2.302491
 H         5.497257        -0.521101        -1.334184
 H        -0.469532         0.617443         0.584117
 H        -0.306610         0.565386        -1.145136
 H        -0.498320        -0.893822        -0.192486
 H         2.145007         2.083218        -0.976261
 H         1.725711         2.182239         0.743279
 H         4.511966         1.294215         0.314478
 H         3.763959        -1.056072         1.574233
