19
Iteration:  2937
 C         4.628114        -1.086738        -1.402773
 C         3.540040        -0.435039        -0.621378
 O         2.194886        -0.207407        -1.301338
 C         1.464550         0.267659        -0.046982
 C         0.039193         0.353520        -0.427335
 C         2.399688         1.367148         0.496682
 C         3.690134         0.571026         0.481768
 C         3.063351        -0.871116         0.754702
 O         1.651907        -0.731700         0.859389
 H         5.597785        -1.097236        -0.963757
 H         4.529397        -2.173301        -1.677801
 H         4.643235        -0.831973        -2.454091
 H        -0.591883         0.751680         0.381042
 H        -0.112835         1.059742        -1.301744
 H        -0.366794        -0.613461        -0.748822
 H         2.378200         2.247174        -0.076464
 H         2.047925         1.506506         1.489528
 H         4.570548         0.993943         0.914997
 H         3.534686        -1.560111         1.365385
