19
Iteration:  2816charge 0 multiplicity 1
 C         4.535417        -1.018128        -1.476287
 C         3.464158        -0.529889        -0.564021
 O         2.232945        -0.142167        -1.259399
 C         1.430358         0.238188        -0.036114
 C         0.056508         0.432904        -0.558576
 C         2.398871         1.451168         0.459866
 C         3.663722         0.449908         0.600334
 C         3.108957        -0.894116         0.787441
 O         1.723060        -0.820360         0.875646
 H         4.801735        -0.360543        -2.249585
 H         5.534873        -1.070947        -1.025844
 H         4.471037        -2.088144        -1.766110
 H        -0.717664         0.836651         0.089700
 H        -0.017692         1.253967        -1.322903
 H        -0.347238        -0.492483        -0.897080
 H         2.453228         2.175617        -0.265676
 H         2.051420         1.903110         1.322925
 H         4.746289         0.667136         0.934899
 H         3.511641        -1.735610         1.446836
