19
Iteration:  2084charge 0 multiplicity 1
 C         4.630448        -1.006074        -1.433487
 C         3.497170        -0.524661        -0.575777
 O         2.287697        -0.120202        -1.295642
 C         1.512049         0.340806        -0.187845
 C         0.091446         0.601824        -0.473145
 C         2.470349         1.281281         0.604935
 C         3.643496         0.327167         0.594071
 C         2.974756        -0.995645         0.836019
 O         1.569501        -0.783148         0.666586
 H         4.122066        -1.351775        -2.385542
 H         5.321663        -0.243113        -1.545694
 H         5.160054        -1.854971        -0.920033
 H        -0.323910         0.826213         0.531375
 H        -0.069027         1.514976        -0.998135
 H        -0.505169        -0.244986        -0.890353
 H         2.712094         2.347763         0.343339
 H         1.909277         1.416747         1.624040
 H         4.510837         0.801842         1.019129
 H         3.291047        -1.808081         1.570035
