19
Iteration:  1902
 C         4.637532        -1.045221        -1.353589
 C         3.512206        -0.386844        -0.556091
 O         2.282979        -0.112395        -1.298327
 C         1.455450         0.222913        -0.166848
 C         0.114953         0.736771        -0.344684
 C         2.414187         1.327362         0.512918
 C         3.619289         0.439072         0.691273
 C         3.022305        -0.974389         0.694753
 O         1.560170        -1.035391         0.642157
 H         4.214790        -1.379679        -2.338160
 H         5.553062        -0.323702        -1.682878
 H         5.042145        -2.026913        -0.959838
 H        -0.424614         0.955984         0.621757
 H         0.360630         1.657387        -0.859662
 H        -0.497442         0.043156        -1.045216
 H         2.713648         2.109288        -0.211378
 H         1.946762         1.814809         1.363955
 H         4.562392         0.661711         1.178180
 H         3.402396        -1.742225         1.365755
