19
Iteration:  3249charge 0 multiplicity 1
 C         4.503012        -1.134777        -1.510619
 C         3.518909        -0.485898        -0.555332
 O         2.239780        -0.353173        -1.234591
 C         1.492560         0.173496        -0.104424
 C         0.044551         0.279880        -0.388621
 C         2.292615         1.478562         0.279450
 C         3.602519         0.711068         0.412769
 C         3.206756        -0.701479         0.896149
 O         1.769727        -0.727504         0.996058
 H         5.282261        -0.391581        -1.727712
 H         4.794580        -2.140864        -1.264681
 H         3.899181        -1.303461        -2.469306
 H        -0.497095         0.440024         0.538520
 H         0.003732         0.811475        -1.395502
 H        -0.283526        -0.705964        -0.716933
 H         2.379338         2.190694        -0.520293
 H         1.945349         1.964426         1.187979
 H         4.540424         1.213195         0.791901
 H         3.539196        -1.387533         1.721924
