19
Iteration:  4520
 C         4.555682        -0.986958        -1.479005
 C         3.453705        -0.478144        -0.615312
 O         2.167901        -0.546844        -1.118823
 C         1.451005         0.106644         0.004424
 C         0.002915         0.151164        -0.373453
 C         2.273971         1.435770        -0.044844
 C         3.538711         0.744889         0.203212
 C         3.296718        -0.628980         0.955276
 O         1.868068        -0.593863         1.213465
 H         4.239942        -1.839187        -2.130703
 H         5.040914        -0.068275        -1.918372
 H         5.416774        -1.536531        -0.886287
 H        -0.657369         0.480436         0.386702
 H        -0.131835         0.800702        -1.199797
 H        -0.319854        -0.893639        -0.438945
 H         2.168235         1.916540        -1.069802
 H         1.938373         2.200557         0.674452
 H         4.553493         1.091729         0.255783
 H         3.985928        -0.789466         1.701330
