19
Iteration:   857
 C         4.534214        -1.051483        -1.481251
 C         3.511754        -0.469488        -0.600283
 O         2.289926        -0.358313        -1.273523
 C         1.474273         0.177594        -0.160763
 C         0.018876         0.411025        -0.461175
 C         2.278265         1.370661         0.426188
 C         3.668006         0.632668         0.468471
 C         3.183892        -0.791726         0.835910
 O         1.697313        -0.731610         0.972995
 H         3.910695        -1.611557        -2.247026
 H         5.260244        -0.187671        -1.861268
 H         5.038327        -1.842153        -0.919568
 H        -0.392842         0.784994         0.457383
 H        -0.136199         1.132198        -1.283178
 H        -0.339467        -0.567752        -0.690617
 H         2.220520         2.298730        -0.157114
 H         1.887822         1.615951         1.396647
 H         4.647957         1.080815         0.866837
 H         3.760273        -1.370669         1.594974
