19
Iteration:   934charge 0 multiplicity 1
 C         4.681992        -1.040349        -1.468060
 C         3.518259        -0.534854        -0.640813
 O         2.263683        -0.231648        -1.229790
 C         1.515604         0.358645        -0.160063
 C        -0.030700         0.315874        -0.433641
 C         2.406887         1.416614         0.433686
 C         3.596740         0.474572         0.536754
 C         3.040143        -0.864686         0.791620
 O         1.653558        -0.686562         0.880888
 H         5.447745        -1.383893        -0.724388
 H         4.212864        -2.027181        -2.022863
 H         5.023425        -0.198226        -2.083878
 H        -0.351097         0.534108         0.590296
 H        -0.442818         1.058348        -1.067460
 H        -0.144027        -0.726014        -0.663190
 H         2.462933         2.371810        -0.143043
 H         1.823125         1.628451         1.311462
 H         4.556796         0.654004         0.948758
 H         3.668754        -1.475828         1.393332
