19
Iteration:  1585charge 0 multiplicity 1
 C         4.543863        -0.965281        -1.420813
 C         3.399513        -0.466485        -0.574883
 O         2.310514         0.035101        -1.238898
 C         1.492532         0.298107        -0.107985
 C         0.197283         0.757820        -0.619321
 C         2.464752         1.289307         0.670525
 C         3.608033         0.280740         0.711207
 C         2.979891        -1.195314         0.654632
 O         1.600077        -0.938533         0.764737
 H         5.457395        -0.724223        -0.952530
 H         4.612825        -2.005521        -1.434402
 H         4.582679        -0.544463        -2.397187
 H        -0.420308         1.213034         0.125137
 H         0.452225         1.565173        -1.350342
 H        -0.265657         0.109433        -1.265207
 H         2.625915         2.059544        -0.264909
 H         1.875589         1.720139         1.528372
 H         4.536864         0.291109         1.301501
 H         3.418816        -1.970818         1.211606
