19
Iteration:   394charge 0 multiplicity 1
 C         4.621460        -1.121191        -1.433876
 C         3.463018        -0.524536        -0.594072
 O         2.181463        -0.583611        -1.195080
 C         1.477619         0.122687        -0.166814
 C        -0.028772         0.079017        -0.227459
 C         2.153764         1.496390         0.113818
 C         3.584781         0.848550         0.282648
 C         3.291972        -0.516044         0.904229
 O         1.882675        -0.562578         1.033059
 H         4.187830        -1.422143        -2.394600
 H         5.495658        -0.452926        -1.584399
 H         4.890727        -2.125500        -1.007900
 H        -0.261859         0.400907         0.767484
 H        -0.342560         0.817263        -1.019470
 H        -0.316389        -0.937795        -0.416738
 H         2.150853         2.147173        -0.775729
 H         1.824788         1.990228         0.984892
 H         4.469367         1.540157         0.382203
 H         3.794681        -0.989944         1.793745
