19
Iteration:  2770charge 0 multiplicity 1
 C         4.646339        -1.196894        -1.432664
 C         3.508843        -0.489252        -0.623532
 O         2.321982        -0.186587        -1.309040
 C         1.474689         0.193407        -0.215231
 C        -0.016140         0.534082        -0.334230
 C         2.288056         1.379151         0.556881
 C         3.589507         0.563086         0.626121
 C         3.133395        -0.864081         0.782899
 O         1.711368        -0.793535         0.713891
 H         4.597760        -0.903556        -2.491678
 H         5.586309        -0.725738        -1.303158
 H         4.775327        -2.304095        -1.162049
 H        -0.467741         1.033750         0.507904
 H        -0.090280         1.373282        -1.013455
 H        -0.758739        -0.199204        -0.586173
 H         2.342802         2.294928        -0.036769
 H         1.668381         1.619167         1.433233
 H         4.421102         0.930355         1.149353
 H         3.581824        -1.625306         1.366689
