19
Iteration:  3950
 C         4.537947        -1.086683        -1.519520
 C         3.490680        -0.521478        -0.543194
 O         2.209684        -0.441189        -1.187203
 C         1.482184         0.202265        -0.127490
 C         0.017107         0.194557        -0.449208
 C         2.343572         1.486905         0.303988
 C         3.581517         0.691200         0.377809
 C         3.246027        -0.683841         0.905302
 O         1.744037        -0.619394         1.001128
 H         5.156926        -1.888856        -1.016761
 H         3.940580        -1.375436        -2.357648
 H         5.256536        -0.277168        -1.754563
 H        -0.632375         0.494979         0.478439
 H        -0.385600         0.780542        -1.297823
 H        -0.190289        -0.879350        -0.719352
 H         2.400788         2.338913        -0.493500
 H         2.014225         1.841154         1.297960
 H         4.645557         1.139336         0.489607
 H         3.828479        -1.350733         1.660217
