19
Iteration:  1715charge 0 multiplicity 1
 C         4.536530        -0.965220        -1.526740
 C         3.549142        -0.539543        -0.515217
 O         2.424161        -0.046474        -1.377021
 C         1.548142         0.347591        -0.176789
 C         0.090406         0.582296        -0.531779
 C         2.490296         1.350066         0.702573
 C         3.593108         0.307425         0.754476
 C         2.909747        -1.056562         0.777851
 O         1.518085        -0.828902         0.731781
 H         4.723002        -2.110414        -1.481401
 H         4.093816        -0.661200        -2.468234
 H         5.546208        -0.472308        -1.363788
 H        -0.542954         0.532855         0.367933
 H        -0.033455         1.563156        -1.057064
 H        -0.355825        -0.182986        -1.134958
 H         2.763233         2.179858        -0.016734
 H         2.117019         1.706738         1.651423
 H         4.421952         0.425264         1.407080
 H         3.265459        -2.036521         1.275588
