19
Iteration:    32
 C         4.415669        -1.097143        -1.500180
 C         3.539880        -0.434450        -0.509404
 O         2.222456        -0.586705        -1.066186
 C         1.449073         0.111816        -0.066791
 C        -0.056981        -0.180670        -0.132995
 C         2.244946         1.507035        -0.293721
 C         3.521823         0.886948         0.216899
 C         3.316430        -0.411880         0.930572
 O         1.989945        -0.527038         1.168282
 H         5.271483        -0.505101        -1.752980
 H         4.764983        -2.044309        -1.253121
 H         3.881532        -1.147548        -2.400730
 H        -0.518763         0.159236         0.800684
 H        -0.535843         0.358200        -0.997630
 H        -0.210191        -1.263406        -0.240451
 H         2.327343         1.773285        -1.329188
 H         1.836075         2.446269         0.222912
 H         4.288773         1.506439         0.611493
 H         4.019133        -0.792308         1.665555
