19
Iteration:  4816charge 0 multiplicity 1
 C         4.553216        -1.087653        -1.446351
 C         3.513021        -0.476677        -0.642282
 O         2.096605        -0.453091        -1.174521
 C         1.434834         0.099487        -0.060009
 C        -0.036374         0.055537        -0.359116
 C         2.330305         1.465781         0.032383
 C         3.642170         0.783711         0.290868
 C         3.214531        -0.553864         0.957353
 O         1.865867        -0.621347         1.151146
 H         5.551007        -0.879769        -1.063049
 H         4.581575        -2.201568        -1.458502
 H         4.481472        -0.664787        -2.404931
 H        -0.556057         0.492066         0.496333
 H        -0.086918         0.694895        -1.254265
 H        -0.324874        -0.940462        -0.631367
 H         2.251006         2.097677        -0.983348
 H         2.062249         2.181854         0.941591
 H         4.573958         1.167418         0.587006
 H         3.926514        -0.944487         1.557933
