19
Iteration:  1928charge 0 multiplicity 1
 C         4.674171        -1.036534        -1.444723
 C         3.480569        -0.580029        -0.564627
 O         2.406304        -0.065145        -1.305423
 C         1.463445         0.334768        -0.244300
 C         0.007756         0.611728        -0.379967
 C         2.366150         1.329132         0.624714
 C         3.647788         0.342380         0.607115
 C         2.968174        -1.021132         0.738274
 O         1.590871        -0.780998         0.701213
 H         4.505418        -1.736412        -2.240345
 H         5.195759        -0.196463        -1.903947
 H         5.370517        -1.574094        -0.832977
 H        -0.266490         0.730080         0.617779
 H        -0.118677         1.550365        -0.914354
 H        -0.507082        -0.118949        -0.857466
 H         2.547357         2.313648         0.079257
 H         1.999356         1.480757         1.718527
 H         4.569833         0.442126         1.187696
 H         3.133219        -1.865610         1.436639
