19
Iteration:  2529charge 0 multiplicity 1
 C         4.642344        -0.980143        -1.515658
 C         3.465563        -0.513778        -0.612612
 O         2.247160        -0.215518        -1.239048
 C         1.486757         0.283697        -0.115145
 C         0.097696         0.514632        -0.553138
 C         2.357796         1.343171         0.504552
 C         3.641833         0.505816         0.547037
 C         3.056872        -0.942271         0.813680
 O         1.644480        -0.829282         0.952230
 H         4.502768        -0.571525        -2.517372
 H         5.532140        -0.633413        -0.977395
 H         4.617792        -2.073614        -1.699801
 H        -0.556369         0.733342         0.344814
 H         0.075107         1.478404        -1.108333
 H        -0.276335        -0.417235        -1.111613
 H         2.400669         2.183990        -0.099270
 H         1.941138         1.700967         1.403418
 H         4.665985         0.756115         0.872216
 H         3.523620        -1.728582         1.336857
