19
Iteration:  3239charge 0 multiplicity 1
 C         4.531932        -1.143035        -1.528920
 C         3.546752        -0.469732        -0.598013
 O         2.200880        -0.345549        -1.152932
 C         1.494587         0.202871        -0.146940
 C         0.057425         0.233786        -0.444558
 C         2.259697         1.418491         0.308950
 C         3.633921         0.662955         0.414771
 C         3.169590        -0.672481         0.916449
 O         1.790323        -0.682490         0.964841
 H         5.439799        -0.587622        -1.821647
 H         4.821026        -2.049688        -1.033172
 H         3.935228        -1.362452        -2.467972
 H        -0.460972         0.765491         0.363639
 H        -0.387347         1.088746        -1.071196
 H        -0.338395        -0.774748        -0.637940
 H         2.246665         2.291082        -0.341939
 H         1.819428         1.655461         1.323946
 H         4.657892         1.095002         0.639460
 H         3.767681        -1.217821         1.674576
