19
Iteration:  4676
 C         4.531858        -0.960182        -1.512701
 C         3.446666        -0.496510        -0.576910
 O         2.205959        -0.603771        -1.093354
 C         1.498245         0.099356        -0.100731
 C        -0.012961         0.213859        -0.309914
 C         2.290713         1.477334        -0.050294
 C         3.542196         0.746649         0.296356
 C         3.223717        -0.541160         1.023990
 O         1.878231        -0.663556         1.105609
 H         5.159464        -1.769646        -1.036812
 H         4.244419        -1.778288        -2.313076
 H         5.150297        -0.214755        -1.931231
 H        -0.529249         0.557825         0.595234
 H        -0.089551         0.874375        -1.183330
 H        -0.317959        -0.775445        -0.580028
 H         2.315820         1.918185        -1.041476
 H         1.927140         2.286068         0.638254
 H         4.493308         1.210702         0.373322
 H         3.738369        -1.259444         1.737321
