19
Iteration:  2317charge 0 multiplicity 1
 C         4.621779        -1.062153        -1.391732
 C         3.507587        -0.514254        -0.625695
 O         2.266759        -0.152731        -1.345895
 C         1.519130         0.269502        -0.136279
 C         0.079129         0.562489        -0.435039
 C         2.329433         1.345650         0.599477
 C         3.625374         0.475919         0.622886
 C         3.065822        -0.943896         0.777678
 O         1.656277        -0.809612         0.699055
 H         5.219539        -1.749940        -0.851439
 H         3.919743        -1.520701        -2.195218
 H         5.331387        -0.455676        -1.914427
 H        -0.280385         0.875565         0.552032
 H         0.071698         1.454100        -1.120082
 H        -0.356069        -0.333842        -0.814237
 H         2.390358         2.463576         0.268000
 H         1.690524         1.394953         1.557258
 H         4.577709         0.603513         1.096881
 H         3.370891        -1.684107         1.497278
