19
Iteration:  3341
 C         4.571445        -1.166655        -1.431992
 C         3.493065        -0.408827        -0.636425
 O         2.197846        -0.350003        -1.201724
 C         1.470335         0.138766        -0.056019
 C         0.036667         0.332738        -0.336343
 C         2.288712         1.465065         0.176616
 C         3.584275         0.742028         0.407254
 C         3.221259        -0.695314         0.837345
 O         1.815367        -0.811259         1.019622
 H         5.348986        -1.216604        -0.683488
 H         4.022586        -2.039059        -1.803338
 H         4.882290        -0.658027        -2.291667
 H        -0.618772         0.728311         0.504254
 H        -0.258884         0.840327        -1.272875
 H        -0.548602        -0.626484        -0.579716
 H         2.277483         1.989893        -0.855165
 H         1.832127         2.113837         1.017943
 H         4.579304         1.166195         0.624964
 H         3.970491        -1.364909         1.410681
