19
Iteration:  1938charge 0 multiplicity 1
 C         4.676212        -1.046326        -1.428483
 C         3.515406        -0.556095        -0.641113
 O         2.314185        -0.029350        -1.307918
 C         1.554198         0.340447        -0.215725
 C         0.049697         0.532120        -0.440528
 C         2.454867         1.330377         0.629362
 C         3.634489         0.326166         0.669484
 C         2.912204        -1.028555         0.684900
 O         1.539925        -0.755556         0.781676
 H         4.345630        -1.841990        -2.069074
 H         4.975480        -0.132604        -2.061100
 H         5.517874        -1.261234        -0.784881
 H        -0.409367         0.702746         0.483913
 H        -0.102309         1.440550        -1.006033
 H        -0.452356        -0.228519        -0.909371
 H         2.860685         2.328501         0.282968
 H         1.783436         1.407165         1.546323
 H         4.620128         0.436899         1.122222
 H         3.308545        -1.818851         1.384708
