19
Iteration:  3887
 C         4.612605        -1.058781        -1.323983
 C         3.465592        -0.473981        -0.624740
 O         2.100415        -0.368466        -1.175889
 C         1.470223         0.118683        -0.053310
 C        -0.040657         0.408037        -0.404093
 C         2.302289         1.494924         0.190008
 C         3.629192         0.703013         0.328624
 C         3.239204        -0.776728         0.824917
 O         1.813764        -0.827247         0.990369
 H         5.555601        -0.617316        -0.911336
 H         4.875136        -2.221062        -1.208658
 H         4.614407        -0.741388        -2.387398
 H        -0.617894         0.688581         0.424303
 H         0.065152         1.012936        -1.270402
 H        -0.491588        -0.535997        -0.534126
 H         2.230165         2.127319        -0.730606
 H         2.020312         2.053364         1.034294
 H         4.666294         1.134167         0.665974
 H         3.990241        -1.508059         1.317996
