19
Iteration:  4858charge 0 multiplicity 1
 C         4.659862        -0.969031        -1.400091
 C         3.498916        -0.569286        -0.564684
 O         2.155577        -0.651416        -1.160531
 C         1.437041         0.034205        -0.172892
 C        -0.043496         0.238738        -0.231999
 C         2.254228         1.444391         0.016739
 C         3.584650         0.790312         0.145547
 C         3.290623        -0.535715         0.941053
 O         1.828513        -0.591966         1.110037
 H         5.482586        -1.438047        -0.838062
 H         4.327537        -1.771341        -2.062922
 H         5.012848        -0.060515        -1.881117
 H        -0.422436         0.627899         0.760108
 H        -0.350173         0.977685        -1.035734
 H        -0.723820        -0.542422        -0.573725
 H         2.170028         2.203048        -0.822760
 H         1.937596         1.726953         1.026264
 H         4.506454         1.176984         0.424152
 H         3.817234        -0.970836         1.688437
