19
Iteration:   821charge 0 multiplicity 1
 C         4.629944        -0.947908        -1.426536
 C         3.444255        -0.576267        -0.626039
 O         2.190001        -0.313169        -1.298957
 C         1.500614         0.317518        -0.011409
 C         0.016738         0.285461        -0.408544
 C         2.408972         1.464093         0.274659
 C         3.640171         0.556652         0.519970
 C         3.146508        -0.840316         0.797250
 O         1.672878        -0.730816         0.982597
 H         4.693415        -0.480838        -2.450810
 H         5.612684        -0.805706        -1.006838
 H         4.594710        -2.086724        -1.502125
 H        -0.685161         0.526041         0.397946
 H        -0.328036         0.853733        -1.269189
 H        -0.214117        -0.760761        -0.620495
 H         2.410230         1.882108        -0.735780
 H         2.031997         2.259178         1.099226
 H         4.598698         0.823558         0.871568
 H         3.711764        -1.368351         1.525543
