19
Iteration:  1679
 C         4.614078        -1.070586        -1.460174
 C         3.480589        -0.461936        -0.611730
 O         2.271315        -0.073721        -1.256630
 C         1.494239         0.303594        -0.042740
 C         0.144547         0.724794        -0.637941
 C         2.421883         1.357786         0.788745
 C         3.591404         0.424604         0.649968
 C         3.010271        -1.047854         0.724047
 O         1.566872        -0.982182         0.713574
 H         4.839387        -2.222819        -1.243128
 H         4.343641        -1.135876        -2.572783
 H         5.571431        -0.432649        -1.478734
 H        -0.660653         0.994452         0.083369
 H         0.324820         1.699369        -1.254727
 H        -0.074806        -0.032698        -1.438230
 H         2.498094         2.178487         0.200543
 H         2.237688         1.579855         1.817603
 H         4.539679         0.589472         1.224357
 H         3.558585        -1.842649         1.103725
