19
Iteration:  3654charge 0 multiplicity 1
 C         4.474735        -1.147118        -1.479678
 C         3.532189        -0.440437        -0.584291
 O         2.151419        -0.393305        -1.139226
 C         1.469116         0.153145        -0.057262
 C         0.062880         0.266569        -0.446982
 C         2.246036         1.445761         0.139355
 C         3.656114         0.813742         0.412082
 C         3.257606        -0.660276         0.922094
 O         1.826773        -0.783550         1.021133
 H         4.834800        -2.101282        -0.903073
 H         3.965140        -1.617787        -2.293989
 H         5.309717        -0.309333        -1.758564
 H        -0.654593         0.553935         0.259382
 H         0.056883         0.947226        -1.233210
 H        -0.389308        -0.650746        -0.707819
 H         2.031731         1.897859        -0.786475
 H         1.916616         2.159375         0.941953
 H         4.714312         1.310016         0.541757
 H         3.865370        -1.289328         1.652378
