19
Iteration:  4269charge 0 multiplicity 1
 C         4.602161        -1.167437        -1.443829
 C         3.481880        -0.481467        -0.574377
 O         2.211535        -0.476090        -1.195264
 C         1.424602         0.164294        -0.059455
 C        -0.015187         0.091379        -0.284575
 C         2.242708         1.529384         0.160272
 C         3.627757         0.794536         0.271141
 C         3.216705        -0.585254         0.855079
 O         1.838251        -0.602376         1.044869
 H         5.436125        -1.472349        -0.805099
 H         4.065676        -1.960751        -1.867949
 H         5.009040        -0.498153        -2.248914
 H        -0.524553         0.540623         0.599907
 H        -0.413801         0.612863        -1.166125
 H        -0.312316        -1.008415        -0.439698
 H         2.240354         2.000227        -0.840040
 H         2.026282         2.188374         0.980858
 H         4.660925         1.160893         0.292106
 H         3.733196        -1.200940         1.494359
