19
Iteration:   554
 C         4.626913        -1.121456        -1.452504
 C         3.466786        -0.463173        -0.615725
 O         2.165062        -0.532086        -1.177749
 C         1.442542         0.098591        -0.070758
 C         0.052496         0.195724        -0.393264
 C         2.232604         1.519899         0.246236
 C         3.569923         0.823854         0.274225
 C         3.266655        -0.600110         0.897077
 O         1.807956        -0.682534         1.047396
 H         5.534516        -0.477303        -1.478149
 H         4.901181        -2.130002        -1.122850
 H         4.307526        -1.287067        -2.458139
 H        -0.536423         0.635381         0.388551
 H        -0.161978         0.943426        -1.190928
 H        -0.409756        -0.720104        -0.656557
 H         2.052474         2.420773        -0.496043
 H         1.894331         1.755130         1.247803
 H         4.563134         1.314575         0.474514
 H         4.073440        -1.216880         1.437409
