19
Iteration:   533
 C         4.642933        -1.098765        -1.436247
 C         3.511158        -0.518769        -0.616295
 O         2.204369        -0.556085        -1.150788
 C         1.429760         0.119561        -0.140445
 C        -0.061156         0.283351        -0.350614
 C         2.205519         1.374390         0.279328
 C         3.565821         0.788488         0.199077
 C         3.264112        -0.553371         0.899624
 O         1.889136        -0.657749         1.015020
 H         5.543101        -0.727115        -0.860118
 H         4.458415        -2.169350        -1.634603
 H         4.645960        -0.646937        -2.441637
 H        -0.605139         0.792253         0.402072
 H        -0.369457         0.908746        -1.224076
 H        -0.463624        -0.676877        -0.497528
 H         2.000757         2.194484        -0.563121
 H         2.043462         1.663170         1.289864
 H         4.461897         1.425420         0.449291
 H         3.779438        -0.841937         1.917486
