19
Iteration:  1112charge 0 multiplicity 1
 C         4.615140        -1.014579        -1.451347
 C         3.490316        -0.380595        -0.585862
 O         2.247179        -0.199256        -1.234209
 C         1.426192         0.215040        -0.075325
 C         0.027491         0.664712        -0.634258
 C         2.365490         1.316268         0.538338
 C         3.593721         0.467238         0.628880
 C         3.125646        -0.961495         0.772444
 O         1.684783        -0.945811         0.891217
 H         4.463168        -2.100321        -1.747415
 H         4.841417        -0.466487        -2.397164
 H         5.668152        -0.845551        -1.062320
 H        -0.531416         0.947355         0.238936
 H         0.360434         1.612360        -1.097259
 H        -0.547459         0.076682        -1.299006
 H         2.486249         2.071748        -0.200758
 H         2.001166         1.682095         1.460693
 H         4.646942         0.704920         0.826737
 H         3.647416        -1.800356         1.133305
