19
Iteration:  1905
 C         4.651427        -1.055638        -1.356309
 C         3.524307        -0.402621        -0.555819
 O         2.305295        -0.116138        -1.313930
 C         1.461656         0.246704        -0.141189
 C         0.088443         0.733088        -0.327448
 C         2.431937         1.314043         0.513456
 C         3.613620         0.440121         0.674043
 C         3.017221        -0.965413         0.712193
 O         1.541884        -1.027843         0.626532
 H         4.209040        -1.335221        -2.276772
 H         5.439761        -0.335400        -1.699089
 H         5.100833        -1.958570        -0.996163
 H        -0.445134         0.924978         0.550013
 H         0.233867         1.637375        -0.885756
 H        -0.430375         0.107140        -0.959930
 H         2.773585         2.113786        -0.216400
 H         1.832658         1.689084         1.397605
 H         4.540934         0.758311         1.110934
 H         3.403451        -1.780296         1.412862
