19
Iteration:  2879
 C         4.649427        -1.047305        -1.486225
 C         3.546442        -0.452294        -0.576517
 O         2.256923        -0.216178        -1.193387
 C         1.501249         0.192786        -0.136159
 C         0.004379         0.536871        -0.420546
 C         2.360679         1.386356         0.341160
 C         3.593009         0.553903         0.565604
 C         3.067478        -0.880048         0.850628
 O         1.663317        -0.907366         0.835836
 H         5.488701        -0.352967        -1.663963
 H         4.875331        -1.985649        -0.993197
 H         4.243085        -1.105139        -2.565374
 H        -0.332005         0.714575         0.583466
 H        -0.075390         1.465788        -0.980142
 H        -0.517399        -0.336099        -0.707558
 H         2.476506         2.127773        -0.521986
 H         1.909235         1.945476         1.237504
 H         4.561345         0.979132         0.992532
 H         3.655307        -1.717615         1.360045
