19
Iteration:   941charge 0 multiplicity 1
 C         4.660421        -1.008407        -1.473908
 C         3.497457        -0.518610        -0.587964
 O         2.289183        -0.250302        -1.254816
 C         1.467404         0.345049        -0.160610
 C        -0.004551         0.352035        -0.406509
 C         2.436802         1.420020         0.409774
 C         3.613802         0.481742         0.521728
 C         3.015975        -0.862341         0.809509
 O         1.639392        -0.738536         0.890304
 H         5.553115        -1.226141        -0.899141
 H         4.463494        -1.938111        -1.820490
 H         4.899730        -0.350498        -2.296697
 H        -0.525426         0.432737         0.547990
 H        -0.328451         1.061223        -1.220538
 H        -0.247306        -0.653301        -0.740383
 H         2.547000         2.287894        -0.264693
 H         2.105042         1.704836         1.504514
 H         4.581280         0.906898         0.945342
 H         3.525208        -1.665917         1.404873
