19
Iteration:  1437
 C         4.541600        -0.984317        -1.494432
 C         3.539168        -0.449305        -0.507759
 O         2.296515        -0.069017        -1.210461
 C         1.500683         0.233661        -0.069777
 C         0.152767         0.809415        -0.634053
 C         2.465706         1.289018         0.620783
 C         3.564809         0.360373         0.715899
 C         2.976449        -1.105703         0.848215
 O         1.600732        -0.989094         0.631766
 H         5.096922        -1.941047        -1.374587
 H         3.962985        -1.095135        -2.537042
 H         5.428772        -0.282125        -1.677723
 H        -0.485013         1.226592         0.205771
 H         0.541819         1.693809        -1.265213
 H        -0.606342         0.115207        -1.064598
 H         2.452719         2.028922        -0.167089
 H         2.173354         1.805988         1.568838
 H         4.550436         0.690727         1.114847
 H         3.313375        -1.912274         1.385885
