19
Iteration:  2232charge 0 multiplicity 1
 C         4.667757        -1.045061        -1.472485
 C         3.510922        -0.454180        -0.664391
 O         2.326097        -0.190043        -1.276616
 C         1.460519         0.256312        -0.143105
 C         0.060323         0.691474        -0.522145
 C         2.363406         1.248661         0.613356
 C         3.573942         0.399963         0.592125
 C         3.015332        -0.932094         0.784638
 O         1.656255        -0.842794         0.814366
 H         5.504899        -0.355385        -1.498631
 H         5.109579        -1.927665        -1.001178
 H         4.242673        -1.212076        -2.423029
 H        -0.421804         1.020011         0.466283
 H         0.142911         1.729937        -1.137930
 H        -0.674746         0.013493        -0.982407
 H         2.476763         2.237446         0.194659
 H         1.967919         1.328873         1.607454
 H         4.440965         0.729516         1.151385
 H         3.349283        -1.776885         1.430260
