19
Iteration:  3768
 C         4.598971        -1.044315        -1.416569
 C         3.496986        -0.565847        -0.619457
 O         2.201413        -0.546082        -1.202434
 C         1.476916         0.117665        -0.172418
 C        -0.034710         0.365786        -0.369421
 C         2.311316         1.424974         0.345261
 C         3.582199         0.764064         0.300240
 C         3.192558        -0.627012         0.834922
 O         1.779758        -0.668154         1.035633
 H         5.424763        -1.604399        -0.960724
 H         4.351643        -1.730904        -2.355642
 H         5.225542        -0.262214        -1.882464
 H        -0.569784         0.663863         0.539524
 H         0.036877         1.069507        -1.239633
 H        -0.489860        -0.617369        -0.570641
 H         2.178747         2.235663        -0.397537
 H         2.042309         1.711327         1.316743
 H         4.558366         1.177738         0.488929
 H         3.731795        -1.196744         1.579798
