19
Iteration:   795
 C         4.579025        -1.020447        -1.432886
 C         3.513417        -0.486104        -0.591180
 O         2.232043        -0.320035        -1.207802
 C         1.505010         0.143869        -0.184766
 C        -0.015336         0.334142        -0.370506
 C         2.307701         1.427216         0.262487
 C         3.658269         0.621727         0.441623
 C         3.188593        -0.744568         0.913033
 O         1.696159        -0.757551         0.933903
 H         5.278940        -0.306816        -1.803566
 H         5.237386        -1.708485        -0.892282
 H         4.185861        -1.726690        -2.153046
 H        -0.482033         0.754925         0.604566
 H        -0.280888         1.161108        -1.095488
 H        -0.616834        -0.612832        -0.686736
 H         2.368351         2.242256        -0.535968
 H         1.957649         1.815812         1.231264
 H         4.638659         1.170699         0.556316
 H         3.704226        -1.612206         1.381710
