19
Iteration:  4649charge 0 multiplicity 1
 C         4.553023        -1.154012        -1.421468
 C         3.524322        -0.491095        -0.624370
 O         2.203132        -0.507276        -1.144095
 C         1.465126         0.171809        -0.100139
 C        -0.067094         0.147690        -0.382460
 C         2.204835         1.441648         0.105281
 C         3.593596         0.805430         0.236320
 C         3.276919        -0.518625         0.906198
 O         1.875476        -0.629881         1.183602
 H         5.028683        -2.080987        -1.190222
 H         4.047468        -1.562500        -2.240942
 H         5.311383        -0.459820        -1.926336
 H        -0.638264         0.501953         0.474236
 H        -0.235129         0.651456        -1.333035
 H        -0.155601        -0.947473        -0.622259
 H         2.170007         2.250245        -0.762135
 H         1.877357         1.919710         1.066343
 H         4.502942         1.398090         0.438980
 H         3.910843        -1.060774         1.521910
