19
Iteration:   712
 C         4.628760        -1.113407        -1.536847
 C         3.527687        -0.504100        -0.620144
 O         2.189519        -0.319971        -1.168699
 C         1.487197         0.238494        -0.126163
 C         0.007058         0.153322        -0.370512
 C         2.365573         1.484768         0.296292
 C         3.657940         0.688854         0.408245
 C         3.093343        -0.726910         0.861441
 O         1.695016        -0.665669         0.981887
 H         5.194615        -1.955975        -1.022074
 H         4.066052        -1.375472        -2.445837
 H         5.436895        -0.275931        -1.484659
 H        -0.424709         0.386517         0.577997
 H        -0.216524         0.578398        -1.304253
 H        -0.130405        -0.934120        -0.454419
 H         2.310631         2.047301        -0.614946
 H         2.008138         2.109303         1.206300
 H         4.617087         1.196009         0.589660
 H         3.454729        -1.404591         1.672025
