19
Iteration:  2397charge 0 multiplicity 1
 C         4.572170        -0.955678        -1.582119
 C         3.597410        -0.582839        -0.447413
 O         2.368829        -0.197046        -1.265301
 C         1.510369         0.286164        -0.167881
 C         0.005095         0.501048        -0.484603
 C         2.457700         1.338965         0.550441
 C         3.640911         0.429081         0.591728
 C         2.997031        -0.944785         0.826912
 O         1.573233        -0.759921         0.790058
 H         4.380046        -1.888429        -2.055608
 H         4.356022        -0.340131        -2.368196
 H         5.589870        -0.811677        -1.346652
 H        -0.716086         0.754456         0.328015
 H        -0.156441         1.422402        -1.148545
 H        -0.495133        -0.429642        -0.953267
 H         2.540161         2.212346        -0.052585
 H         2.067337         1.598137         1.498484
 H         4.494994         0.779121         1.203317
 H         3.186140        -1.604004         1.727611
