19
Iteration:  2348
 C         4.691621        -1.049316        -1.280495
 C         3.441593        -0.430014        -0.662372
 O         2.261828        -0.073243        -1.253414
 C         1.432953         0.207192        -0.059707
 C        -0.019556         0.643474        -0.476561
 C         2.362840         1.338117         0.484423
 C         3.692462         0.426230         0.507523
 C         3.121722        -0.958854         0.669229
 O         1.659381        -0.930084         0.813025
 H         4.821499        -2.107764        -0.891715
 H         4.591965        -1.365577        -2.415033
 H         5.650897        -0.441368        -1.173901
 H        -0.625478         0.966368         0.360581
 H        -0.003972         1.555915        -0.981228
 H        -0.667635        -0.060317        -0.919562
 H         2.426087         2.291460        -0.189369
 H         1.987559         1.617965         1.538813
 H         4.591180         0.586364         1.042852
 H         3.485635        -1.864257         1.159401
