19
Iteration:   571charge 0 multiplicity 1
 C         4.483848        -1.064137        -1.390954
 C         3.526248        -0.417576        -0.612184
 O         2.202397        -0.363647        -1.189862
 C         1.437394         0.160578        -0.094346
 C        -0.038802         0.134875        -0.413192
 C         2.280636         1.411974         0.139309
 C         3.622996         0.747354         0.349315
 C         3.233155        -0.662690         0.858166
 O         1.883641        -0.706528         1.112094
 H         5.386344        -0.521003        -1.751612
 H         5.093465        -1.745774        -0.755983
 H         3.968843        -1.491610        -2.309772
 H        -0.613988         0.424207         0.519023
 H        -0.219966         0.803880        -1.266805
 H        -0.392101        -0.911200        -0.704744
 H         2.314403         1.932370        -0.752125
 H         1.886790         2.166588         0.885726
 H         4.571791         1.273570         0.501187
 H         3.768766        -1.282517         1.532005
