19
Iteration:   372charge 0 multiplicity 1
 C         4.667043        -1.059142        -1.412972
 C         3.490474        -0.488366        -0.610523
 O         2.194170        -0.599193        -1.143448
 C         1.471992         0.172523        -0.193413
 C        -0.165671        -0.037202        -0.169183
 C         2.330115         1.522854         0.065608
 C         3.629515         0.781175         0.180286
 C         3.185940        -0.499564         0.862527
 O         1.809829        -0.502264         1.083745
 H         4.602150        -0.781112        -2.474394
 H         5.654644        -0.721412        -1.050572
 H         4.660127        -2.199112        -1.464630
 H        -0.466865         0.263249         0.813821
 H        -0.606257         0.452807        -1.079195
 H        -0.232768        -1.104447        -0.290029
 H         2.304546         2.404262        -0.622908
 H         2.031971         1.836237         1.016869
 H         4.666565         1.081965         0.449775
 H         3.690626        -1.063318         1.667247
