19
Iteration:   196
 C         4.529789        -1.150376        -1.413494
 C         3.507531        -0.409726        -0.590344
 O         2.166813        -0.641986        -1.034883
 C         1.436644        -0.002778        -0.056804
 C        -0.055043         0.098072        -0.365012
 C         2.117683         1.457324        -0.067123
 C         3.512696         0.925667         0.151902
 C         3.369482        -0.366905         0.872499
 O         2.035598        -0.633751         1.220682
 H         4.135606        -2.181881        -1.436960
 H         4.671515        -0.749601        -2.409521
 H         5.485337        -1.192795        -0.912174
 H        -0.655119         0.567190         0.461608
 H        -0.079139         0.721677        -1.245055
 H        -0.417566        -0.934571        -0.609908
 H         1.895058         1.992654        -1.023225
 H         1.715204         2.006856         0.791177
 H         4.467490         1.539942         0.177993
 H         4.208402        -0.728577         1.547574
