19
Iteration:  2725
 C         4.575914        -1.007418        -1.470931
 C         3.422263        -0.543832        -0.598238
 O         2.244609        -0.177082        -1.242455
 C         1.447417         0.267181        -0.075107
 C         0.068953         0.409540        -0.545440
 C         2.479950         1.402538         0.490226
 C         3.631354         0.489968         0.623362
 C         3.075913        -0.925755         0.756238
 O         1.661984        -0.781942         0.853737
 H         4.472629        -0.533670        -2.464291
 H         5.468184        -0.451276        -1.221493
 H         4.686867        -2.073131        -1.160855
 H        -0.621863         0.509745         0.296958
 H        -0.039070         1.311048        -1.107833
 H        -0.203230        -0.521171        -1.087382
 H         2.741523         2.248266        -0.227956
 H         2.273652         1.896007         1.501373
 H         4.587234         0.879486         0.880671
 H         3.384431        -1.781580         1.324428
