19
Iteration:   139
 C         4.603463        -1.131978        -1.507097
 C         3.565272        -0.525514        -0.552527
 O         2.203853        -0.653933        -1.149398
 C         1.384834         0.145502        -0.298557
 C        -0.046632        -0.129827        -0.117268
 C         2.172654         1.475691         0.021689
 C         3.593616         0.884465         0.160648
 C         3.316117        -0.418618         1.020086
 O         1.880391        -0.371860         1.088244
 H         4.151619        -1.346821        -2.569886
 H         5.543308        -0.500973        -1.624752
 H         4.861417        -2.095780        -0.962123
 H        -0.365930         0.439540         0.776956
 H        -0.861898        -0.063524        -0.889054
 H        -0.002088        -1.206174         0.179284
 H         2.035661         2.214066        -0.748189
 H         1.773661         1.929188         1.041313
 H         4.273942         1.695264         0.043363
 H         3.860606        -0.993777         1.686774
