19
Iteration:    83
 C         4.618141        -1.101869        -1.290139
 C         3.407703        -0.447350        -0.662336
 O         2.069328        -0.657969        -1.034384
 C         1.414622         0.042825         0.020039
 C        -0.064393         0.034067        -0.303173
 C         2.057368         1.473892        -0.003953
 C         3.552660         0.912375        -0.006189
 C         3.443495        -0.432957         0.744017
 O         2.108073        -0.559971         1.224485
 H         5.169729        -0.379369        -1.979733
 H         5.369448        -1.479391        -0.506754
 H         4.403585        -2.023984        -1.923660
 H        -0.672644         0.527155         0.459150
 H        -0.165544         0.638807        -1.259782
 H        -0.518052        -0.943514        -0.474684
 H         1.796574         1.885280        -0.987288
 H         1.670077         1.999813         0.930985
 H         4.424536         1.538176        -0.032250
 H         4.217199        -0.801860         1.444724
