19
Iteration:  4434charge 0 multiplicity 1
 C         4.603420        -1.183224        -1.312812
 C         3.420604        -0.387681        -0.673252
 O         2.110651        -0.485572        -1.198044
 C         1.454011         0.119247        -0.002912
 C        -0.045439         0.062169        -0.287034
 C         2.228494         1.562093         0.107261
 C         3.541741         0.800895         0.178944
 C         3.304913        -0.518912         0.893147
 O         1.957922        -0.653923         1.053491
 H         4.143423        -1.958312        -2.034560
 H         5.397453        -0.615245        -1.946531
 H         5.241704        -1.859340        -0.526627
 H        -0.372267         0.693803         0.584472
 H        -0.260242         0.617408        -1.251909
 H        -0.459303        -0.989880        -0.535134
 H         2.318315         1.949322        -0.881783
 H         1.954423         2.141872         0.962678
 H         4.509143         1.242746         0.364462
 H         4.018514        -1.191922         1.420814
