19
Iteration:  3188charge 0 multiplicity 1
 C         4.572190        -1.091685        -1.389236
 C         3.486981        -0.445590        -0.668435
 O         2.201840        -0.280224        -1.201353
 C         1.481570         0.183346        -0.104891
 C         0.005721         0.353182        -0.347132
 C         2.326321         1.397399         0.212140
 C         3.601936         0.647397         0.386773
 C         3.204323        -0.757377         0.856756
 O         1.742267        -0.818044         0.977396
 H         5.230806        -0.397207        -1.954583
 H         5.357283        -1.234120        -0.522229
 H         4.320985        -1.877065        -2.078747
 H        -0.589517         0.733096         0.526820
 H        -0.371553         0.995382        -1.120633
 H        -0.257163        -0.749839        -0.432741
 H         2.542681         2.032655        -0.695955
 H         2.028063         2.113558         1.088828
 H         4.479170         1.242268         0.711217
 H         3.684907        -1.481797         1.386308
