19
Iteration:  4902
 C         4.501685        -1.189371        -1.370627
 C         3.481493        -0.463110        -0.568281
 O         2.240392        -0.428268        -1.148285
 C         1.445194         0.145821        -0.097608
 C        -0.053371        -0.008561        -0.293055
 C         2.230571         1.549380         0.029424
 C         3.645303         0.809807         0.226872
 C         3.272725        -0.503635         0.871089
 O         1.884461        -0.655404         1.074771
 H         5.177586        -1.702827        -0.668596
 H         3.887991        -1.916061        -1.955769
 H         5.142267        -0.498870        -1.942269
 H        -0.520811         0.543619         0.571747
 H        -0.506202         0.505529        -1.212748
 H        -0.541599        -0.996196        -0.369755
 H         2.260629         2.086401        -0.943560
 H         1.993593         2.068254         0.937577
 H         4.511820         1.454915         0.516848
 H         4.003594        -1.038930         1.352276
