19
Iteration:  3293charge 0 multiplicity 1
 C         4.684048        -1.060725        -1.450203
 C         3.495454        -0.520166        -0.595936
 O         2.149454        -0.440734        -1.271457
 C         1.464057         0.231792        -0.112796
 C         0.018765         0.293387        -0.311556
 C         2.341788         1.450562         0.263872
 C         3.602345         0.653705         0.355935
 C         3.160049        -0.748457         0.879781
 O         1.753605        -0.663350         1.008114
 H         5.446313        -0.329756        -1.239168
 H         4.794449        -2.078938        -1.250699
 H         4.408818        -1.035721        -2.545802
 H        -0.486492         0.646889         0.599703
 H        -0.296981         0.925287        -1.201062
 H        -0.511705        -0.622010        -0.580714
 H         2.285920         2.190854        -0.491663
 H         2.045848         1.820309         1.243060
 H         4.564148         1.149211         0.536594
 H         3.784691        -1.356866         1.472733
