19
Iteration:  4145charge 0 multiplicity 1
 C         4.561503        -1.205588        -1.330988
 C         3.433938        -0.467686        -0.638433
 O         2.145607        -0.321069        -1.288422
 C         1.462930         0.211155        -0.053862
 C        -0.016099         0.081435        -0.318852
 C         2.345548         1.503558         0.157215
 C         3.625142         0.773412         0.358513
 C         3.234855        -0.618983         0.826904
 O         1.864751        -0.703205         1.046662
 H         4.910676        -0.649299        -2.269395
 H         5.471766        -1.184689        -0.549808
 H         4.175239        -2.246117        -1.526253
 H        -0.731930         0.461485         0.422110
 H        -0.199644         0.710617        -1.208663
 H        -0.391402        -0.917637        -0.406694
 H         2.331109         2.136544        -0.748767
 H         1.974083         1.938647         1.041884
 H         4.497040         1.364150         0.323774
 H         3.709176        -1.299671         1.463009
