19
Iteration:  3213
 C         4.560465        -1.158466        -1.396265
 C         3.505740        -0.495755        -0.624327
 O         2.193427        -0.354827        -1.282709
 C         1.443849         0.157271        -0.061266
 C        -0.016139         0.270661        -0.414808
 C         2.302904         1.479413         0.378597
 C         3.658905         0.736168         0.356409
 C         3.190159        -0.709880         0.802835
 O         1.800546        -0.723704         0.991547
 H         5.412223        -0.477577        -1.797196
 H         5.222424        -1.859768        -0.761121
 H         4.017736        -1.503106        -2.278402
 H        -0.713912         0.781064         0.250927
 H        -0.212158         1.040795        -1.091242
 H        -0.345532        -0.714110        -0.674733
 H         2.408566         2.346463        -0.262307
 H         1.962918         1.765612         1.304987
 H         4.566734         1.193648         0.628767
 H         3.710253        -1.422887         1.520965
