19
Iteration:  1011charge 0 multiplicity 1
 C         4.551456        -1.039718        -1.453841
 C         3.498085        -0.520776        -0.637328
 O         2.293208        -0.233342        -1.226659
 C         1.472853         0.226640        -0.135826
 C         0.067590         0.547231        -0.531043
 C         2.335947         1.289360         0.543124
 C         3.629657         0.532564         0.478841
 C         3.106737        -0.835684         0.859891
 O         1.672940        -0.796941         0.847191
 H         4.983392        -0.206068        -2.012227
 H         5.492392        -1.253001        -0.802923
 H         4.189174        -1.782224        -2.176682
 H        -0.508740         0.797451         0.358592
 H         0.182413         1.205158        -1.332227
 H        -0.423071        -0.377629        -0.903142
 H         2.380055         2.317258         0.068297
 H         2.020600         1.310137         1.594596
 H         4.522700         0.924956         0.906111
 H         3.436066        -1.600916         1.557182
