19
Iteration:   144charge 0 multiplicity 1
 C         4.608518        -1.131284        -1.512946
 C         3.539545        -0.498160        -0.584722
 O         2.159213        -0.648338        -1.112142
 C         1.386716         0.173486        -0.284897
 C        -0.104928        -0.187759        -0.190158
 C         2.223026         1.480652         0.045700
 C         3.627972         0.867172         0.138451
 C         3.312050        -0.393157         1.014522
 O         1.891473        -0.395556         1.128505
 H         4.127136        -1.443453        -2.379791
 H         5.399319        -0.442684        -1.694035
 H         4.971250        -2.004487        -1.020717
 H        -0.355707         0.359514         0.730952
 H        -0.822462        -0.051954        -0.972572
 H         0.005903        -1.236428         0.106648
 H         2.195984         2.323963        -0.704664
 H         1.834363         1.948985         0.888631
 H         4.465074         1.636787         0.093978
 H         3.939524        -0.865703         1.858599
