19
Iteration:  4994
 C         4.697460        -1.038956        -1.449367
 C         3.558901        -0.564729        -0.546692
 O         2.185957        -0.644685        -1.161310
 C         1.420402         0.174980        -0.189813
 C        -0.070296         0.252715        -0.248857
 C         2.175225         1.441082         0.002148
 C         3.613213         0.842143         0.252256
 C         3.271570        -0.612790         0.917903
 O         1.796861        -0.637753         1.139892
 H         5.583290        -0.468727        -1.309992
 H         4.816557        -2.062305        -1.244685
 H         4.480848        -0.894120        -2.452315
 H        -0.230172         0.811149         0.621040
 H        -0.321323         0.837020        -1.068708
 H        -0.586622        -0.648269        -0.320605
 H         2.078019         2.003878        -0.952480
 H         1.825319         1.938853         1.013589
 H         4.469631         1.415487         0.244540
 H         3.845407        -1.108485         1.646192
