19
Iteration:  1737charge 0 multiplicity 1
 C         4.687947        -1.023984        -1.461557
 C         3.492255        -0.486413        -0.542718
 O         2.264915         0.020739        -1.143511
 C         1.535013         0.348855        -0.077392
 C         0.094700         0.631408        -0.444924
 C         2.515758         1.316257         0.498602
 C         3.561786         0.305907         0.766316
 C         2.951781        -1.057502         0.700276
 O         1.529388        -0.906516         0.565471
 H         4.756300        -2.196470        -1.494673
 H         4.534779        -0.639044        -2.480252
 H         5.703263        -0.646523        -1.101820
 H        -0.656971         0.660127         0.355719
 H         0.054837         1.559022        -1.049456
 H        -0.340606        -0.140482        -1.065497
 H         2.748538         2.028883        -0.351882
 H         2.219534         1.812139         1.404022
 H         4.514800         0.552870         1.164574
 H         3.360158        -1.981975         1.277848
