19
Iteration:  4465
 C         4.586109        -1.317311        -1.392522
 C         3.500326        -0.406594        -0.584109
 O         2.185898        -0.407557        -1.205697
 C         1.479704         0.114167        -0.109058
 C         0.019072         0.011734        -0.248376
 C         2.178871         1.484355         0.134392
 C         3.604402         0.911247         0.127820
 C         3.261458        -0.526646         0.914201
 O         1.871341        -0.599264         1.054131
 H         3.950381        -1.693237        -2.205349
 H         5.329709        -0.622036        -1.818772
 H         5.049889        -1.974956        -0.534471
 H        -0.370459         0.502072         0.613390
 H        -0.455438         0.477879        -1.073546
 H        -0.468953        -0.979957        -0.187219
 H         1.996625         2.276623        -0.677362
 H         1.840123         1.919952         1.070911
 H         4.462730         1.516098         0.375955
 H         3.880326        -1.309770         1.430492
