19
Iteration:  2044charge 0 multiplicity 1
 C         4.686208        -1.024770        -1.341895
 C         3.476422        -0.460408        -0.658249
 O         2.272406         0.059356        -1.261648
 C         1.471827         0.268836        -0.035339
 C         0.069373         0.638661        -0.457721
 C         2.450199         1.286327         0.493132
 C         3.600914         0.284353         0.646955
 C         3.006871        -1.062827         0.697205
 O         1.548391        -0.865710         0.718300
 H         4.529845        -2.041651        -1.629459
 H         5.013183        -0.468422        -2.303678
 H         5.469017        -1.128153        -0.598531
 H        -0.490668         1.015105         0.445368
 H         0.111442         1.479961        -1.254093
 H        -0.288528        -0.335834        -1.002146
 H         2.728154         2.102504        -0.198878
 H         2.432323         1.782653         1.432454
 H         4.656463         0.427298         0.933844
 H         3.235477        -1.842097         1.409260
