19
Iteration:   661
 C         4.640418        -1.031176        -1.403747
 C         3.523512        -0.403321        -0.603572
 O         2.129187        -0.440640        -1.151168
 C         1.465714         0.162984         0.007685
 C         0.025794         0.376942        -0.400645
 C         2.242327         1.414782         0.126609
 C         3.598174         0.712490         0.318466
 C         3.234076        -0.684664         0.849748
 O         1.791891        -0.862550         1.023020
 H         4.138548        -1.875382        -1.881939
 H         4.975182        -0.242213        -2.113819
 H         5.431515        -1.295579        -0.751155
 H        -0.555466         0.810517         0.424937
 H         0.037898         0.886018        -1.435065
 H        -0.320162        -0.641541        -0.532134
 H         2.206221         2.062148        -0.737050
 H         1.941420         1.903734         1.013071
 H         4.447305         1.293875         0.596409
 H         3.881345        -1.386312         1.417081
