19
Iteration:    62charge 0 multiplicity 1
 C         4.619826        -1.157297        -1.499060
 C         3.475719        -0.449480        -0.661720
 O         2.148515        -0.751445        -1.127120
 C         1.444330         0.060568        -0.059279
 C         0.046196        -0.052471        -0.219400
 C         2.140985         1.450253         0.065697
 C         3.527911         0.876211        -0.023211
 C         3.301212        -0.274047         0.955681
 O         1.918017        -0.412931         1.245607
 H         5.279328        -0.349227        -1.916662
 H         5.277933        -1.873253        -0.941080
 H         4.196026        -1.725198        -2.365303
 H        -0.525578         0.260745         0.655930
 H        -0.272000         0.586832        -1.109909
 H        -0.216599        -1.097506        -0.417238
 H         1.927558         2.232594        -0.657254
 H         1.917028         1.576903         1.178521
 H         4.371625         1.545372        -0.051198
 H         3.991085        -0.721740         1.711438
