19
Iteration:  3682
 C         4.536586        -1.187625        -1.453863
 C         3.474709        -0.490227        -0.624546
 O         2.193389        -0.382423        -1.219513
 C         1.459254         0.177225        -0.094733
 C         0.015341         0.169595        -0.448349
 C         2.291456         1.488035         0.286591
 C         3.622358         0.731641         0.347459
 C         3.277554        -0.609921         0.865080
 O         1.818504        -0.659304         1.090190
 H         4.775477        -2.050149        -0.898517
 H         4.086580        -1.606683        -2.391146
 H         5.198662        -0.436476        -1.564383
 H        -0.758414         0.614088         0.277711
 H        -0.211518         0.800889        -1.410322
 H        -0.330249        -0.886310        -0.725604
 H         2.096251         2.364894        -0.423035
 H         2.106157         1.845781         1.333522
 H         4.525289         1.138043         0.590492
 H         3.882687        -1.209930         1.431695
