19
Iteration:  2951charge 0 multiplicity 1
 C         4.537738        -1.087441        -1.496652
 C         3.443555        -0.483464        -0.637567
 O         2.311185        -0.190715        -1.273244
 C         1.484493         0.247921        -0.094132
 C         0.026389         0.382394        -0.488769
 C         2.377485         1.438924         0.460892
 C         3.596328         0.542131         0.545881
 C         3.134891        -0.843174         0.814823
 O         1.701695        -0.808285         0.923391
 H         5.420195        -1.093260        -0.821255
 H         4.109289        -2.051398        -1.737052
 H         4.825323        -0.358529        -2.186010
 H        -0.627159         0.760703         0.358335
 H        -0.033784         1.081982        -1.324054
 H        -0.202445        -0.731018        -0.606244
 H         2.521944         2.214584        -0.293177
 H         2.138392         1.973003         1.348049
 H         4.562823         0.806382         0.908556
 H         3.550816        -1.736169         1.370830
