19
Iteration:  2790charge 0 multiplicity 1
 C         4.552883        -1.082093        -1.426739
 C         3.570804        -0.407175        -0.539093
 O         2.308568        -0.194005        -1.298541
 C         1.506431         0.246798        -0.177631
 C         0.092316         0.540505        -0.415883
 C         2.353705         1.340766         0.472105
 C         3.606461         0.561213         0.552997
 C         3.054450        -0.872305         0.788057
 O         1.630681        -0.909503         0.808755
 H         4.477512        -0.882601        -2.560729
 H         5.624116        -0.996783        -1.265804
 H         4.496859        -2.201842        -1.370566
 H        -0.422729         0.887350         0.481100
 H        -0.217590         1.308640        -1.056943
 H        -0.333933        -0.467090        -0.499669
 H         2.353365         2.350915        -0.094701
 H         1.834678         1.567393         1.491830
 H         4.463430         0.982774         0.949913
 H         3.535840        -1.577651         1.385211
