19
Iteration:  3464charge 0 multiplicity 1
 C         4.666265        -1.105672        -1.447871
 C         3.463344        -0.509217        -0.607325
 O         2.242519        -0.486378        -1.258724
 C         1.480801         0.180349        -0.232058
 C        -0.035938         0.339632        -0.255741
 C         2.313239         1.419572         0.241963
 C         3.558212         0.698573         0.310746
 C         3.199144        -0.669498         0.899821
 O         1.777167        -0.647277         1.019766
 H         5.408191        -1.333207        -0.715972
 H         4.314932        -2.119118        -1.834218
 H         4.921071        -0.276789        -2.059364
 H        -0.413761         0.616257         0.725240
 H        -0.425553         0.973030        -1.055456
 H        -0.532557        -0.601116        -0.324101
 H         2.194399         2.319211        -0.466431
 H         1.946234         1.709029         1.220773
 H         4.537320         1.126509         0.507765
 H         3.680544        -1.274352         1.582390
