19
Iteration:  1774charge 0 multiplicity 1
 C         4.669313        -1.059831        -1.371096
 C         3.545137        -0.489891        -0.639421
 O         2.270375        -0.128506        -1.317089
 C         1.508720         0.312916        -0.229998
 C         0.109148         0.754210        -0.425826
 C         2.355198         1.181127         0.709866
 C         3.567377         0.389172         0.608702
 C         3.021132        -0.988273         0.679872
 O         1.583022        -0.835164         0.709532
 H         4.458303        -1.978674        -1.778156
 H         5.107706        -0.390806        -2.109654
 H         5.394927        -1.168125        -0.607981
 H        -0.206901         1.073993         0.543067
 H         0.158942         1.657124        -0.986515
 H        -0.501331         0.005371        -0.926653
 H         2.399614         2.332108         0.517297
 H         1.886674         0.991302         1.756984
 H         4.540856         0.796723         0.937673
 H         3.471076        -1.847417         1.050168
