19
Iteration:  2103charge 0 multiplicity 1
 C         4.577186        -1.057630        -1.576472
 C         3.546154        -0.546288        -0.539997
 O         2.390277        -0.123276        -1.271830
 C         1.488613         0.223338        -0.133899
 C         0.138885         0.729342        -0.505521
 C         2.329937         1.344446         0.580936
 C         3.616535         0.444732         0.721945
 C         2.988184        -0.932623         0.790563
 O         1.567838        -0.920817         0.764625
 H         4.003761        -1.131063        -2.575769
 H         5.484678        -0.375000        -1.652533
 H         5.049153        -2.059676        -1.329996
 H        -0.482282         0.923710         0.334061
 H         0.161554         1.565960        -1.152194
 H        -0.347735        -0.025065        -1.018706
 H         2.413923         2.177327        -0.115724
 H         1.918477         1.596207         1.598199
 H         4.578492         0.608300         1.202607
 H         3.346392        -1.794265         1.448346
