19
Iteration:  1528charge 0 multiplicity 1
 C         4.578559        -1.095807        -1.429238
 C         3.518765        -0.503252        -0.562629
 O         2.393699         0.033375        -1.302178
 C         1.550638         0.327505        -0.147374
 C         0.118859         0.709361        -0.474362
 C         2.436893         1.241039         0.628764
 C         3.604152         0.304485         0.786737
 C         2.946279        -1.073347         0.728264
 O         1.500052        -0.835160         0.634259
 H         5.597861        -0.650560        -1.336583
 H         4.595936        -2.127028        -1.576593
 H         4.324620        -0.675814        -2.403131
 H        -0.505802         0.683083         0.418176
 H         0.180259         1.703257        -0.891588
 H        -0.277241        -0.038599        -1.197868
 H         2.616463         2.265910         0.159073
 H         1.848180         1.474427         1.553472
 H         4.601986         0.571395         1.157710
 H         3.347780        -2.046692         1.111559
