19
Iteration:  4326
 C         4.588453        -1.226270        -1.422148
 C         3.557268        -0.455892        -0.643026
 O         2.188124        -0.524402        -1.181537
 C         1.420418         0.181201        -0.100864
 C        -0.005529         0.151586        -0.298065
 C         2.179608         1.465645         0.199383
 C         3.580862         0.805144         0.210719
 C         3.275894        -0.528032         0.868417
 O         1.845262        -0.609748         1.026466
 H         5.001674        -2.141402        -0.943678
 H         4.319141        -1.720781        -2.392549
 H         5.357829        -0.580279        -1.653391
 H        -0.464424         0.588534         0.659096
 H        -0.384970         0.700182        -1.229067
 H        -0.373272        -1.001651        -0.262323
 H         2.092094         2.442512        -0.270587
 H         1.991392         1.930436         1.253855
 H         4.431381         1.370762         0.574563
 H         4.015583        -0.913373         1.646571
