19
Iteration:  3956charge 0 multiplicity 1
 C         4.535405        -1.088720        -1.494987
 C         3.488766        -0.473517        -0.561717
 O         2.173299        -0.402682        -1.181876
 C         1.476153         0.203167        -0.077942
 C         0.021489         0.184996        -0.465514
 C         2.320368         1.471660         0.263415
 C         3.635648         0.686796         0.358375
 C         3.257056        -0.668455         0.905999
 O         1.767831        -0.654950         0.998775
 H         4.905495        -1.922802        -0.911145
 H         3.962987        -1.430654        -2.401870
 H         5.318931        -0.343148        -1.664711
 H        -0.630523         0.325292         0.363177
 H        -0.068505         0.860610        -1.323339
 H        -0.305011        -0.845349        -0.608065
 H         2.271945         2.178651        -0.486949
 H         2.052376         1.917909         1.241669
 H         4.585540         0.939725         0.663971
 H         3.714259        -1.296938         1.605657
