19
Iteration:   553
 C         4.627878        -1.121361        -1.455599
 C         3.472689        -0.476356        -0.618770
 O         2.162934        -0.540278        -1.176813
 C         1.439175         0.104379        -0.064839
 C         0.056879         0.201541        -0.391827
 C         2.227299         1.518051         0.250468
 C         3.570995         0.825406         0.271618
 C         3.268199        -0.589227         0.894510
 O         1.804542        -0.681418         1.040402
 H         5.558017        -0.531801        -1.458001
 H         4.929912        -2.112788        -1.131620
 H         4.325258        -1.241121        -2.452098
 H        -0.542994         0.639174         0.413477
 H        -0.153781         0.947109        -1.206041
 H        -0.421325        -0.734171        -0.653577
 H         2.043535         2.414785        -0.450709
 H         1.853927         1.745987         1.262413
 H         4.582392         1.305373         0.471131
 H         4.069581        -1.190763         1.443540
