19
Iteration:  1361charge 0 multiplicity 1
 C         4.596356        -1.087129        -1.340110
 C         3.504696        -0.486159        -0.599612
 O         2.356891         0.061740        -1.277319
 C         1.498406         0.270106        -0.110757
 C         0.124643         0.658690        -0.420537
 C         2.358624         1.299919         0.604383
 C         3.571340         0.360988         0.683842
 C         2.994980        -1.051798         0.643025
 O         1.583359        -0.913834         0.629670
 H         4.407846        -2.099950        -1.655146
 H         4.800713        -0.462462        -2.250801
 H         5.568965        -1.236671        -0.880524
 H        -0.431234         0.905985         0.520481
 H         0.286517         1.627975        -1.045036
 H        -0.453794        -0.056255        -1.002416
 H         2.672258         2.168579        -0.074659
 H         2.195813         1.804370         1.599557
 H         4.495411         0.675058         1.231975
 H         3.301852        -2.019682         1.062300
