19
Iteration:  2400
 C         4.570217        -0.947533        -1.585845
 C         3.574333        -0.611265        -0.468189
 O         2.368628        -0.187051        -1.272294
 C         1.503709         0.288971        -0.150497
 C         0.006848         0.507760        -0.495303
 C         2.445172         1.324429         0.553773
 C         3.647011         0.450570         0.607435
 C         3.023932        -0.939848         0.853769
 O         1.575041        -0.762353         0.800333
 H         4.255403        -1.909218        -2.071045
 H         4.391009        -0.236703        -2.373348
 H         5.676114        -0.905163        -1.358576
 H        -0.746750         0.741874         0.306011
 H        -0.120186         1.299997        -1.243038
 H        -0.526837        -0.358442        -1.052564
 H         2.709496         2.131864        -0.091773
 H         2.022089         1.584473         1.506390
 H         4.463205         0.872178         1.149034
 H         3.210639        -1.661771         1.674802
