19
Iteration:   683
 C         4.565136        -1.022101        -1.461227
 C         3.479437        -0.524624        -0.582687
 O         2.253090        -0.438276        -1.256564
 C         1.474408         0.085594        -0.179513
 C        -0.047886         0.250181        -0.352633
 C         2.306381         1.493071         0.265545
 C         3.617191         0.650661         0.435881
 C         3.230320        -0.675681         0.892647
 O         1.784672        -0.653100         0.987358
 H         4.556183        -2.111501        -1.553522
 H         4.433479        -0.454173        -2.417146
 H         5.429928        -0.625227        -1.028595
 H        -0.322781         0.777894         0.589389
 H        -0.281670         0.836977        -1.320325
 H        -0.644826        -0.660790        -0.359616
 H         2.342978         2.214428        -0.569130
 H         1.870796         1.891110         1.123785
 H         4.584977         1.020312         0.593845
 H         3.614102        -1.269145         1.709445
