19
Iteration:  2945charge 0 multiplicity 1
 C         4.601566        -1.106580        -1.452914
 C         3.443207        -0.445709        -0.653087
 O         2.276686        -0.206292        -1.293131
 C         1.476733         0.240387        -0.046096
 C         0.035959         0.381442        -0.449881
 C         2.418696         1.395518         0.478358
 C         3.608118         0.577231         0.508365
 C         3.113397        -0.860364         0.789770
 O         1.671242        -0.757829         0.894997
 H         5.563099        -1.096282        -0.910555
 H         4.210633        -2.131773        -1.614218
 H         4.733122        -0.393055        -2.388517
 H        -0.565856         0.661179         0.379326
 H        -0.118797         0.882629        -1.424006
 H        -0.298789        -0.584659        -0.776393
 H         2.451564         2.244030        -0.276382
 H         2.132169         1.721281         1.563600
 H         4.569310         0.904408         1.036680
 H         3.466509        -1.712031         1.360213
