19
Iteration:  1088
 C         4.566716        -1.045930        -1.443901
 C         3.492419        -0.496835        -0.567251
 O         2.264998        -0.209294        -1.279700
 C         1.502096         0.272477        -0.173181
 C         0.133561         0.561387        -0.456936
 C         2.315299         1.293763         0.578998
 C         3.585332         0.548927         0.559954
 C         3.106118        -0.891645         0.797415
 O         1.651499        -0.853344         0.733012
 H         4.255328        -1.745973        -2.195102
 H         5.359819        -0.323562        -1.864952
 H         5.267014        -1.565657        -0.776256
 H        -0.256629         0.886783         0.512921
 H         0.173818         1.380858        -1.127652
 H        -0.488012        -0.251607        -0.882611
 H         2.270250         2.296768         0.024820
 H         2.043621         1.390997         1.673178
 H         4.461388         0.994956         1.099997
 H         3.509234        -1.721597         1.406581
