19
Iteration:  2411charge 0 multiplicity 1
 C         4.546369        -0.950966        -1.594228
 C         3.481171        -0.567973        -0.589250
 O         2.330676        -0.166706        -1.245679
 C         1.485831         0.267158        -0.117700
 C         0.046574         0.529689        -0.589873
 C         2.397368         1.325124         0.501730
 C         3.648547         0.448039         0.702502
 C         3.066816        -0.931712         0.932027
 O         1.617391        -0.806473         0.843926
 H         4.172343        -1.854692        -2.129776
 H         4.637598        -0.081318        -2.220453
 H         5.536547        -1.266886        -1.164500
 H        -0.508200         0.818415         0.342543
 H         0.097727         1.346706        -1.311636
 H        -0.257712        -0.484111        -1.049714
 H         2.620406         2.180042        -0.104652
 H         2.029802         1.727330         1.433177
 H         4.612302         0.824474         0.973831
 H         3.497863        -1.824891         1.395996
