19
Iteration:  2430
 C         4.517570        -0.971482        -1.459110
 C         3.510515        -0.415884        -0.595339
 O         2.198531        -0.184964        -1.203163
 C         1.522226         0.249104        -0.074665
 C         0.176444         0.527362        -0.578049
 C         2.397950         1.385710         0.523026
 C         3.605490         0.513958         0.574432
 C         3.044310        -0.995304         0.706356
 O         1.674926        -0.902558         0.898485
 H         3.965321        -1.618985        -2.101044
 H         5.122358        -0.253686        -1.867795
 H         5.120499        -1.693313        -0.932767
 H        -0.532554         0.913595         0.190947
 H         0.338237         1.201105        -1.462537
 H        -0.273728        -0.323269        -1.198716
 H         2.603089         2.097468        -0.218352
 H         1.987864         1.764672         1.418863
 H         4.508707         0.727988         1.129368
 H         3.569766        -1.690153         1.436167
