19
Iteration:  4040
 C         4.609453        -1.072113        -1.397687
 C         3.484782        -0.526772        -0.607151
 O         2.176228        -0.349672        -1.188705
 C         1.453768         0.182363        -0.084822
 C        -0.063859         0.173849        -0.283859
 C         2.322506         1.445645         0.103984
 C         3.567251         0.696682         0.361215
 C         3.201140        -0.717919         0.847577
 O         1.839776        -0.638781         1.023660
 H         4.444709        -1.748753        -2.199913
 H         5.222209        -0.239784        -1.833274
 H         5.315587        -1.660390        -0.792955
 H        -0.586351         0.676970         0.496569
 H        -0.227230         0.737209        -1.230387
 H        -0.303667        -0.848333        -0.574773
 H         2.398401         2.057531        -0.841444
 H         2.023138         2.084830         0.941797
 H         4.511702         1.096841         0.515413
 H         3.725193        -1.271889         1.572167
