19
Iteration:   624charge 0 multiplicity 1
 C         4.556114        -1.098633        -1.369238
 C         3.524101        -0.471407        -0.616516
 O         2.198375        -0.444637        -1.255625
 C         1.443590         0.161081        -0.156023
 C        -0.017629         0.214071        -0.347506
 C         2.259656         1.384649         0.264687
 C         3.632040         0.731198         0.354784
 C         3.300273        -0.610851         0.904023
 O         1.790003        -0.622811         0.988550
 H         4.243097        -1.046377        -2.467850
 H         5.500254        -0.490036        -1.529845
 H         4.859546        -2.249524        -1.211918
 H        -0.679240         0.537196         0.466751
 H        -0.382662         0.843453        -1.113868
 H        -0.281925        -0.826786        -0.660119
 H         2.102162         2.283746        -0.317660
 H         1.897921         1.611847         1.321273
 H         4.561365         1.322191         0.517410
 H         3.674779        -1.377260         1.537108
