19
Iteration:  2468charge 0 multiplicity 1
 C         4.672510        -1.155031        -1.385128
 C         3.490621        -0.467872        -0.633484
 O         2.260809        -0.092212        -1.334877
 C         1.479866         0.268402        -0.242450
 C         0.022486         0.507414        -0.383561
 C         2.346655         1.323420         0.548685
 C         3.584984         0.494266         0.541205
 C         3.073733        -0.874255         0.807396
 O         1.681547        -0.841604         0.792175
 H         4.442549        -1.199375        -2.483982
 H         5.711181        -0.612087        -1.603768
 H         4.949821        -2.117753        -0.893152
 H        -0.332956         0.850373         0.602358
 H        -0.173647         1.362946        -1.083370
 H        -0.553873        -0.398568        -0.570326
 H         2.512846         2.364316         0.035096
 H         1.923361         1.350252         1.620721
 H         4.474814         0.837342         1.110781
 H         3.596892        -1.402969         1.578952
