19
Iteration:  1936
 C         4.676448        -1.049890        -1.427658
 C         3.508926        -0.566729        -0.628527
 O         2.334659        -0.032561        -1.301474
 C         1.529183         0.340567        -0.236753
 C         0.047441         0.540231        -0.422636
 C         2.428244         1.340146         0.637115
 C         3.646908         0.329255         0.654882
 C         2.920767        -1.024573         0.683050
 O         1.550523        -0.757144         0.772524
 H         4.376977        -1.824992        -2.134768
 H         5.021379        -0.083080        -2.075782
 H         5.528874        -1.331936        -0.766725
 H        -0.391799         0.732606         0.566710
 H        -0.084785         1.454144        -0.986509
 H        -0.537021        -0.234161        -0.954392
 H         2.852336         2.301074         0.258370
 H         1.799440         1.388020         1.522110
 H         4.603039         0.398192         1.133159
 H         3.252677        -1.820584         1.451717
