19
Iteration:  4507charge 0 multiplicity 1
 C         4.588108        -1.046978        -1.495753
 C         3.520344        -0.509908        -0.555961
 O         2.165941        -0.523985        -1.074701
 C         1.453720         0.119030        -0.059217
 C        -0.044806         0.054606        -0.303502
 C         2.238826         1.482884        -0.004548
 C         3.623528         0.782590         0.244202
 C         3.239283        -0.517374         0.895272
 O         1.850476        -0.597692         1.149288
 H         3.994161        -1.543876        -2.273429
 H         5.125844        -0.389507        -2.134356
 H         5.304113        -1.733485        -0.875897
 H        -0.449650         0.584305         0.520684
 H        -0.152841         0.626963        -1.202051
 H        -0.418410        -0.902846        -0.682922
 H         2.252273         1.829586        -1.146878
 H         2.029601         2.239138         0.768689
 H         4.532337         1.371789         0.276041
 H         3.775855        -1.265148         1.606382
