19
Iteration:   772charge 0 multiplicity 1
 C         4.601598        -1.163707        -1.456274
 C         3.563171        -0.480384        -0.628358
 O         2.263322        -0.430976        -1.257785
 C         1.480620         0.156117        -0.084246
 C         0.027617         0.414350        -0.340138
 C         2.226055         1.439933         0.405767
 C         3.533455         0.723106         0.363469
 C         3.148756        -0.665953         0.833088
 O         1.802597        -0.778760         0.899368
 H         5.529949        -0.641175        -1.304679
 H         4.894942        -2.237161        -1.272018
 H         4.289758        -1.226754        -2.456883
 H        -0.760807         0.733953         0.426160
 H        -0.114738         1.165982        -1.214938
 H        -0.404680        -0.534640        -0.814455
 H         2.191630         2.394224        -0.204895
 H         2.013271         1.603085         1.420489
 H         4.351846         1.276129         0.950490
 H         3.665962        -1.017360         1.757708
