19
Iteration:   201
 C         4.521251        -1.155287        -1.409076
 C         3.496032        -0.425782        -0.588832
 O         2.200470        -0.710761        -1.082775
 C         1.431340         0.003608        -0.088753
 C        -0.093478         0.076657        -0.338039
 C         2.110473         1.464206        -0.015253
 C         3.535238         0.940749         0.143034
 C         3.384187        -0.322908         0.879805
 O         2.012896        -0.607812         1.190106
 H         4.313651        -2.232508        -1.393781
 H         4.604881        -0.878070        -2.483848
 H         5.547397        -1.066265        -0.979242
 H        -0.489568         0.587515         0.524573
 H        -0.089580         0.822900        -1.175395
 H        -0.610235        -0.842701        -0.555048
 H         1.998037         2.073548        -0.925019
 H         1.954015         2.017407         0.937666
 H         4.348128         1.561559         0.439169
 H         4.078197        -0.679600         1.587153
