19
Iteration:  4595
 C         4.496684        -1.228501        -1.334689
 C         3.518743        -0.393206        -0.667549
 O         2.194710        -0.359430        -1.198447
 C         1.449918         0.146958        -0.101854
 C        -0.053481         0.039293        -0.259963
 C         2.197044         1.549522         0.067188
 C         3.610557         0.848441         0.275510
 C         3.300293        -0.635273         0.899108
 O         1.888751        -0.705713         1.043569
 H         4.702085        -2.078877        -0.713219
 H         4.312146        -1.523222        -2.341297
 H         5.570849        -0.788003        -1.416171
 H        -0.400357         0.658995         0.547151
 H        -0.342998         0.539173        -1.166861
 H        -0.420365        -1.013627        -0.203007
 H         2.323735         2.012794        -1.029176
 H         1.936038         2.223931         0.922949
 H         4.524807         1.389943         0.415714
 H         3.905745        -1.053328         1.608670
