19
Iteration:  4279charge 0 multiplicity 1
 C         4.572271        -1.176575        -1.406667
 C         3.529914        -0.458673        -0.661886
 O         2.175566        -0.381665        -1.179556
 C         1.473432         0.162862        -0.046012
 C        -0.052588         0.086150        -0.239392
 C         2.288735         1.537151         0.048579
 C         3.552022         0.776601         0.317140
 C         3.240901        -0.604917         0.873739
 O         1.871532        -0.674522         1.038319
 H         5.138544        -1.760088        -0.714050
 H         4.176788        -2.012235        -1.906981
 H         5.223824        -0.649130        -2.170422
 H        -0.677942         0.484387         0.564407
 H        -0.230596         0.600466        -1.186941
 H        -0.326386        -0.976778        -0.383111
 H         2.162447         2.120884        -0.870019
 H         1.918174         2.163553         0.748289
 H         4.474503         1.315507         0.590318
 H         3.817520        -1.005720         1.644342
