19
Iteration:  3037charge 0 multiplicity 1
 C         4.583737        -1.026968        -1.337482
 C         3.466124        -0.428010        -0.661451
 O         2.215633        -0.257594        -1.263366
 C         1.453595         0.159210        -0.040995
 C         0.000400         0.417861        -0.365533
 C         2.417445         1.493536         0.333804
 C         3.609655         0.571657         0.441933
 C         3.128370        -0.883827         0.764834
 O         1.718817        -0.829257         0.891221
 H         4.772885        -2.128952        -1.212603
 H         4.822336        -0.961811        -2.472524
 H         5.549205        -0.585781        -0.973800
 H        -0.458042         0.612027         0.640697
 H        -0.172855         1.109587        -1.173541
 H        -0.589801        -0.450320        -0.825138
 H         2.491567         2.200633        -0.449572
 H         2.088709         1.905336         1.217863
 H         4.704842         0.801359         0.626547
 H         3.605037        -1.506405         1.628833
