19
Iteration:  3119
 C         4.545877        -1.058124        -1.488181
 C         3.456091        -0.477626        -0.606356
 O         2.217016        -0.323426        -1.221964
 C         1.415034         0.183694         0.035235
 C         0.013840         0.324090        -0.531812
 C         2.349554         1.419965         0.348640
 C         3.615569         0.608510         0.456571
 C         3.222186        -0.799940         0.834249
 O         1.805644        -0.725262         0.990286
 H         4.099068        -1.157187        -2.482373
 H         5.321861        -0.351323        -1.443641
 H         4.808045        -2.089069        -1.102815
 H        -0.761859         0.848615         0.063569
 H         0.097047         1.260791        -1.193314
 H        -0.400057        -0.588200        -0.943706
 H         2.480323         2.080113        -0.563109
 H         1.956969         2.066194         1.265075
 H         4.504536         1.097167         0.742880
 H         3.798423        -1.551161         1.468405
