19
Iteration:  3127charge 0 multiplicity 1
 C         4.552389        -1.045017        -1.477741
 C         3.494373        -0.450957        -0.590869
 O         2.182168        -0.320830        -1.229567
 C         1.453679         0.176005        -0.070112
 C        -0.000506         0.370603        -0.508378
 C         2.345934         1.452395         0.321383
 C         3.643708         0.593853         0.413079
 C         3.172542        -0.795411         0.871293
 O         1.782013        -0.791658         1.062234
 H         4.010871        -0.943788        -2.459118
 H         5.458015        -0.457502        -1.371161
 H         4.937213        -2.027361        -1.217593
 H        -0.569722         0.726002         0.385758
 H         0.009515         1.073324        -1.427950
 H        -0.330258        -0.594878        -0.932091
 H         2.502028         2.164738        -0.476761
 H         1.997360         1.912241         1.194679
 H         4.570846         1.004929         0.694184
 H         3.722822        -1.431407         1.468428
