19
Iteration:  3612
 C         4.713629        -1.099186        -1.473014
 C         3.470271        -0.532228        -0.563652
 O         2.162018        -0.456811        -1.200048
 C         1.469686         0.182032        -0.153774
 C        -0.039021         0.253040        -0.267891
 C         2.340769         1.455645         0.169284
 C         3.656752         0.672812         0.323372
 C         3.192170        -0.648538         0.878948
 O         1.701408        -0.611905         0.991347
 H         5.379164        -1.570089        -0.718235
 H         4.406347        -1.882851        -2.162225
 H         4.982142        -0.054447        -1.920553
 H        -0.436129         0.629694         0.683497
 H        -0.564610         0.810405        -0.984611
 H        -0.214537        -0.789946        -0.538241
 H         2.408037         2.280084        -0.486251
 H         1.943634         1.815757         1.085234
 H         4.690692         1.162838         0.557642
 H         3.619533        -1.456731         1.539549
