19
Iteration:  3841charge 0 multiplicity 1
 C         4.521527        -1.188454        -1.434793
 C         3.558480        -0.489106        -0.583208
 O         2.267958        -0.316821        -1.200903
 C         1.479662         0.254349        -0.169869
 C        -0.031884         0.197089        -0.367493
 C         2.299018         1.460221         0.312420
 C         3.583185         0.748098         0.418713
 C         3.181697        -0.667965         0.848632
 O         1.769155        -0.743315         0.905110
 H         5.605905        -0.963374        -1.447285
 H         4.676061        -2.249851        -1.208274
 H         4.201147        -1.122237        -2.511647
 H        -0.349959         0.582458         0.623828
 H        -0.322984         0.837709        -1.142424
 H        -0.399946        -0.802908        -0.329301
 H         2.398298         2.330582        -0.403093
 H         1.985949         1.834940         1.293507
 H         4.459710         1.225540         0.681684
 H         3.736111        -1.229624         1.557036
