19
Iteration:  2182
 C         4.665332        -1.068012        -1.412031
 C         3.464357        -0.481630        -0.605347
 O         2.337521        -0.055956        -1.355035
 C         1.487584         0.315978        -0.186682
 C         0.003549         0.554264        -0.392432
 C         2.462429         1.313633         0.574804
 C         3.640370         0.356030         0.735502
 C         3.049011        -1.012024         0.708730
 O         1.539789        -0.794809         0.721773
 H         4.797407        -0.376040        -2.356830
 H         5.528184        -0.947686        -0.763827
 H         4.463583        -2.171322        -1.739098
 H        -0.479367         0.784558         0.535459
 H        -0.188023         1.383993        -0.985368
 H        -0.463613        -0.347765        -0.819641
 H         2.692119         2.190733        -0.113592
 H         2.050787         1.873194         1.496229
 H         4.602749         0.580257         1.211552
 H         3.366889        -1.846397         1.261595
