19
Iteration:  4656charge 0 multiplicity 1
 C         4.559259        -1.117891        -1.449902
 C         3.512192        -0.433654        -0.540998
 O         2.152816        -0.542097        -1.131894
 C         1.446309         0.124720        -0.069903
 C        -0.020788         0.132320        -0.389633
 C         2.243945         1.431090         0.068283
 C         3.665170         0.801129         0.265315
 C         3.310077        -0.529187         0.852779
 O         1.833490        -0.628959         1.149818
 H         5.109725        -2.062730        -1.115951
 H         3.896279        -1.529883        -2.286538
 H         5.174167        -0.325583        -1.819605
 H        -0.645624         0.522486         0.441916
 H        -0.158469         0.837669        -1.233997
 H        -0.482195        -0.875823        -0.590796
 H         2.168799         2.012934        -0.756252
 H         1.868730         2.081791         0.808954
 H         4.498654         1.408921         0.466672
 H         3.883418        -0.989510         1.657195
