19
Iteration:  1214charge 0 multiplicity 1
 C         4.625663        -1.095299        -1.316601
 C         3.522250        -0.403969        -0.602898
 O         2.234293        -0.117684        -1.284087
 C         1.454974         0.239520        -0.120375
 C         0.064232         0.774264        -0.496794
 C         2.309952         1.291373         0.669154
 C         3.647202         0.439033         0.577289
 C         3.099829        -0.941387         0.674142
 O         1.662369        -1.007813         0.709368
 H         5.635002        -0.529444        -1.391517
 H         4.843030        -2.145992        -1.036078
 H         4.420035        -1.138559        -2.431857
 H        -0.484351         1.273604         0.323739
 H         0.071772         1.485970        -1.293789
 H        -0.444534        -0.123536        -0.992236
 H         2.369491         2.239200         0.295675
 H         1.982206         1.412067         1.652570
 H         4.593804         0.887219         0.976268
 H         3.655358        -1.752332         1.154721
