19
Iteration:  4320charge 0 multiplicity 1
 C         4.567501        -1.245275        -1.401103
 C         3.529745        -0.401085        -0.626533
 O         2.224043        -0.506026        -1.205599
 C         1.437181         0.164903        -0.103909
 C        -0.023052         0.110599        -0.237554
 C         2.188253         1.511555         0.175339
 C         3.545252         0.818080         0.213375
 C         3.308762        -0.589672         0.875299
 O         1.863965        -0.615777         0.991848
 H         4.855142        -2.088808        -0.739450
 H         4.112570        -1.711147        -2.296673
 H         5.434274        -0.532135        -1.705549
 H        -0.441580         0.690938         0.550264
 H        -0.298151         0.624893        -1.133120
 H        -0.454341        -0.790043        -0.400556
 H         2.136350         2.464981        -0.415226
 H         1.938127         1.723403         1.249315
 H         4.489004         1.304329         0.490598
 H         3.864350        -0.918202         1.755112
