19
Iteration:  1252
 C         4.601702        -0.996193        -1.484306
 C         3.548551        -0.491777        -0.547641
 O         2.335736        -0.061412        -1.234470
 C         1.532669         0.294037        -0.161657
 C         0.135469         0.619254        -0.488648
 C         2.423163         1.304351         0.575464
 C         3.596383         0.395842         0.654260
 C         2.959258        -0.978848         0.779858
 O         1.530316        -0.909207         0.706358
 H         4.848883        -0.117638        -2.010509
 H         5.513734        -1.414372        -1.083090
 H         4.043987        -1.701211        -2.075077
 H        -0.388897         0.871011         0.439841
 H         0.031239         1.376387        -1.325618
 H        -0.266767        -0.346012        -0.740114
 H         2.700637         2.247637        -0.078422
 H         1.910391         1.499849         1.604358
 H         4.495353         0.497310         1.203441
 H         3.368171        -1.893920         1.257165
