19
Iteration:  1378
 C         4.628502        -1.047292        -1.425460
 C         3.484094        -0.511420        -0.606563
 O         2.347705         0.002720        -1.324610
 C         1.523167         0.392429        -0.156189
 C         0.025080         0.619878        -0.493754
 C         2.530618         1.281536         0.721132
 C         3.698411         0.346276         0.691878
 C         2.906711        -1.021546         0.744779
 O         1.500822        -0.866620         0.640819
 H         4.593743        -2.163822        -1.548785
 H         4.748711        -0.594415        -2.464486
 H         5.575377        -0.743495        -0.874570
 H        -0.413164         0.842155         0.465529
 H        -0.251898         1.336970        -1.227371
 H        -0.237519        -0.359272        -0.919343
 H         2.515266         2.249529         0.313606
 H         1.989229         1.236833         1.633125
 H         4.651167         0.400582         1.169483
 H         3.371291        -1.845630         1.346494
