19
Iteration:  3485
 C         4.638107        -1.123787        -1.402727
 C         3.452325        -0.508465        -0.608881
 O         2.126659        -0.349474        -1.218878
 C         1.458622         0.236221        -0.080632
 C         0.001062         0.195338        -0.355833
 C         2.381882         1.464047         0.226130
 C         3.679372         0.678618         0.312659
 C         3.181609        -0.727694         0.857259
 O         1.767365        -0.651206         1.000809
 H         5.498262        -0.859198        -0.824752
 H         4.470487        -2.253833        -1.500730
 H         4.579550        -0.545592        -2.299940
 H        -0.602887         0.463663         0.556997
 H        -0.291345         0.765249        -1.248310
 H        -0.403180        -0.806989        -0.440386
 H         2.315798         2.171665        -0.715547
 H         1.990745         1.984078         1.116320
 H         4.634355         1.120786         0.601561
 H         3.671193        -1.349279         1.545787
