19
Iteration:  3958charge 0 multiplicity 1
 C         4.523100        -1.087438        -1.482056
 C         3.488640        -0.458975        -0.582438
 O         2.164196        -0.385743        -1.177534
 C         1.472417         0.202623        -0.060628
 C         0.026959         0.180469        -0.472797
 C         2.312538         1.458001         0.250752
 C         3.655871         0.685944         0.352204
 C         3.239143        -0.657737         0.898645
 O         1.782213        -0.673454         1.003534
 H         4.841466        -1.983086        -0.907967
 H         4.078592        -1.426092        -2.337043
 H         5.347019        -0.381139        -1.675944
 H        -0.688340         0.367484         0.418749
 H         0.027417         0.878865        -1.319974
 H        -0.322656        -0.877247        -0.641824
 H         2.227540         2.187877        -0.560911
 H         2.042774         1.954980         1.232134
 H         4.636697         0.944049         0.745475
 H         3.726415        -1.340502         1.666579
