19
Iteration:  3794
 C         4.512268        -1.077180        -1.498876
 C         3.508511        -0.489243        -0.627313
 O         2.194224        -0.387024        -1.148586
 C         1.482731         0.220993        -0.124322
 C        -0.001114         0.234448        -0.467543
 C         2.292476         1.457695         0.267527
 C         3.633454         0.678849         0.349884
 C         3.212744        -0.710684         0.923760
 O         1.798314        -0.678079         1.053854
 H         5.444481        -1.268715        -0.933370
 H         4.360734        -2.046250        -1.848336
 H         4.782239        -0.476897        -2.371403
 H        -0.696962         0.430835         0.381848
 H        -0.107085         0.922582        -1.370594
 H        -0.168367        -0.865080        -0.696602
 H         2.259166         2.256716        -0.486485
 H         1.913425         1.877890         1.297638
 H         4.685360         1.041752         0.601410
 H         3.636364        -1.358442         1.746927
