19
Iteration:  3718
 C         4.558621        -1.113807        -1.402044
 C         3.495002        -0.484763        -0.617165
 O         2.264883        -0.417496        -1.244347
 C         1.481942         0.231596        -0.135008
 C        -0.076632         0.189155        -0.244650
 C         2.336906         1.529642         0.145439
 C         3.636961         0.706367         0.385991
 C         3.174751        -0.683147         0.864657
 O         1.737633        -0.695666         0.958415
 H         5.130973        -1.939339        -0.946704
 H         4.259916        -1.401419        -2.345426
 H         5.466978        -0.543858        -1.615024
 H        -0.388640         0.603997         0.704893
 H        -0.370111         0.753250        -1.143530
 H        -0.412650        -0.876030        -0.228752
 H         2.181012         2.151115        -0.724111
 H         2.013668         2.002397         1.174933
 H         4.651236         1.137400         0.819537
 H         3.818039        -1.327208         1.585557
