19
Iteration:  4168
 C         4.618949        -1.199427        -1.404282
 C         3.508600        -0.488636        -0.645319
 O         2.228589        -0.445876        -1.172559
 C         1.466513         0.222837        -0.155882
 C        -0.045813         0.117976        -0.276213
 C         2.260427         1.459859         0.255247
 C         3.676762         0.753164         0.237679
 C         3.138810        -0.587422         0.811953
 O         1.816639        -0.566759         0.997926
 H         5.303130        -0.450309        -1.948876
 H         5.315455        -1.721035        -0.646492
 H         4.083340        -1.868609        -2.161848
 H        -0.546400         0.442931         0.664541
 H        -0.513316         0.704044        -1.108718
 H        -0.298237        -0.947681        -0.178988
 H         1.999455         2.251319        -0.522511
 H         1.889043         1.660304         1.221224
 H         4.575953         1.196483         0.623742
 H         3.665044        -1.150622         1.646480
