19
Iteration:  4333
 C         4.624858        -1.219877        -1.455892
 C         3.521930        -0.540399        -0.650246
 O         2.149968        -0.516773        -1.153538
 C         1.476174         0.171483        -0.107578
 C        -0.050253         0.165374        -0.344267
 C         2.216888         1.455912         0.239970
 C         3.613222         0.819853         0.222289
 C         3.243398        -0.457694         0.850443
 O         1.834377        -0.618645         1.089911
 H         5.124431        -2.029205        -0.946038
 H         4.260662        -1.453007        -2.434255
 H         5.552259        -0.516601        -1.653564
 H        -0.498318         0.515514         0.552413
 H        -0.381089         0.678337        -1.191815
 H        -0.192061        -0.875916        -0.283108
 H         2.008491         2.188108        -0.587710
 H         1.979374         1.747309         1.192988
 H         4.468734         1.424714         0.524273
 H         3.855624        -0.999320         1.469136
