19
Iteration:  2938charge 0 multiplicity 1
 C         4.626458        -1.086791        -1.408643
 C         3.529063        -0.433507        -0.625336
 O         2.203094        -0.208259        -1.302965
 C         1.464847         0.262230        -0.039405
 C         0.043950         0.357746        -0.429224
 C         2.405345         1.371197         0.496915
 C         3.682602         0.575517         0.485212
 C         3.067284        -0.871041         0.757922
 O         1.652389        -0.730395         0.861870
 H         5.598414        -1.117618        -0.959441
 H         4.506083        -2.164672        -1.688033
 H         4.640376        -0.805781        -2.428567
 H        -0.597545         0.741265         0.399740
 H        -0.126449         1.007919        -1.327728
 H        -0.380096        -0.614516        -0.783569
 H         2.386423         2.225668        -0.099749
 H         2.067557         1.507457         1.471972
 H         4.534383         0.979353         0.926691
 H         3.528979        -1.589238         1.370538
