19
Iteration:   919
 C         4.613223        -1.116583        -1.414684
 C         3.472696        -0.486244        -0.611787
 O         2.229887        -0.192904        -1.322667
 C         1.479502         0.264980        -0.192738
 C         0.036366         0.297068        -0.389077
 C         2.333140         1.431445         0.472642
 C         3.655143         0.557984         0.541570
 C         3.114308        -0.859535         0.786075
 O         1.703081        -0.683971         0.866717
 H         5.102808        -1.931033        -0.887225
 H         4.381705        -1.545418        -2.297655
 H         5.370739        -0.388482        -1.643714
 H        -0.477564         0.471097         0.538277
 H        -0.262066         0.978578        -1.232050
 H        -0.362647        -0.668072        -0.677429
 H         2.532276         2.307964        -0.158963
 H         1.986405         1.696437         1.562633
 H         4.651192         0.968268         0.938766
 H         3.377704        -1.672554         1.516494
