19
Iteration:  4571charge 0 multiplicity 1
 C         4.588726        -1.127582        -1.428603
 C         3.518170        -0.525487        -0.614649
 O         2.215544        -0.531724        -1.226431
 C         1.444827         0.166977        -0.084619
 C        -0.031385         0.168591        -0.222246
 C         2.210226         1.421356         0.073744
 C         3.593776         0.834512         0.244427
 C         3.213143        -0.519342         0.933109
 O         1.852138        -0.635827         1.055316
 H         4.757873        -2.193127        -1.161173
 H         4.426819        -0.962554        -2.472604
 H         5.621634        -0.748691        -1.283812
 H        -0.527166         0.721300         0.616983
 H        -0.285766         0.719579        -1.150322
 H        -0.341335        -0.923308        -0.233007
 H         2.111822         2.033708        -0.924486
 H         1.992712         1.946976         1.001150
 H         4.442370         1.405583         0.602586
 H         3.951986        -1.099906         1.608142
