19
Iteration:  4367charge 0 multiplicity 1
 C         4.512123        -0.993961        -1.459899
 C         3.451338        -0.498598        -0.584464
 O         2.182001        -0.561670        -1.082771
 C         1.488963         0.179001        -0.055164
 C         0.030385         0.194395        -0.368296
 C         2.286796         1.422845         0.014019
 C         3.570939         0.720419         0.281107
 C         3.285300        -0.580144         0.890139
 O         1.865094        -0.628722         1.126449
 H         4.597850        -2.083898        -1.280536
 H         4.071028        -0.918279        -2.454610
 H         5.371477        -0.224008        -1.303277
 H        -0.569077         0.562670         0.451240
 H        -0.399581         0.569510        -1.267895
 H        -0.263011        -0.867004        -0.565686
 H         2.216556         1.721376        -1.068970
 H         2.054988         2.193892         0.666587
 H         4.472617         1.223534         0.625240
 H         3.871975        -1.212768         1.581148
