19
Iteration:  3214charge 0 multiplicity 1
 C         4.564608        -1.164492        -1.403453
 C         3.509316        -0.491579        -0.624423
 O         2.202009        -0.362589        -1.282137
 C         1.438201         0.155410        -0.073575
 C        -0.021116         0.270569        -0.412636
 C         2.305300         1.479860         0.387960
 C         3.656935         0.738703         0.354055
 C         3.196542        -0.703140         0.803226
 O         1.795584        -0.720035         0.998416
 H         5.387913        -0.443845        -1.790523
 H         5.169632        -1.879692        -0.780503
 H         4.006617        -1.517076        -2.304852
 H        -0.728200         0.787088         0.229416
 H        -0.273373         1.053092        -1.113639
 H        -0.321554        -0.700538        -0.680565
 H         2.420151         2.345323        -0.230766
 H         1.978761         1.739516         1.314719
 H         4.574491         1.222348         0.649324
 H         3.710843        -1.461619         1.549331
