19
Iteration:  2157
 C         4.648736        -1.071777        -1.513394
 C         3.505582        -0.533465        -0.578551
 O         2.308754        -0.054563        -1.215072
 C         1.514122         0.364660        -0.165497
 C         0.120056         0.547446        -0.544618
 C         2.421114         1.309015         0.697432
 C         3.593863         0.398000         0.544688
 C         2.998592        -1.017810         0.736539
 O         1.537732        -0.779343         0.774769
 H         4.459926        -0.781748        -2.585156
 H         5.579600        -0.679477        -1.079373
 H         4.694928        -2.172181        -1.411563
 H        -0.548090         0.758727         0.264885
 H        -0.084768         1.370487        -1.195568
 H        -0.155223        -0.343593        -1.023081
 H         2.467442         2.307592         0.395294
 H         2.235791         1.375773         1.728715
 H         4.504067         0.655368         1.054671
 H         3.355613        -1.847486         1.445475
