19
Iteration:  4432
 C         4.596302        -1.169157        -1.321352
 C         3.426333        -0.390254        -0.668939
 O         2.103503        -0.495047        -1.195504
 C         1.460783         0.105620        -0.023822
 C        -0.043519         0.070343        -0.289045
 C         2.229410         1.560192         0.109727
 C         3.542626         0.815318         0.181713
 C         3.307452        -0.528811         0.904783
 O         1.943026        -0.646059         1.056499
 H         4.201381        -1.986294        -2.007437
 H         5.338865        -0.613326        -1.940924
 H         5.298199        -1.883020        -0.573491
 H        -0.327823         0.653268         0.550338
 H        -0.202037         0.626607        -1.186022
 H        -0.414302        -0.959121        -0.481882
 H         2.271769         1.998850        -0.950427
 H         1.989684         2.125093         0.979883
 H         4.522322         1.257341         0.348630
 H         4.024270        -1.266609         1.451615
