19
Iteration:  1052charge 0 multiplicity 1
 C         4.621082        -1.093421        -1.425983
 C         3.548126        -0.408118        -0.590006
 O         2.304381        -0.061647        -1.309072
 C         1.493422         0.330435        -0.064058
 C        -0.059517         0.342753        -0.411558
 C         2.466418         1.336380         0.410888
 C         3.620547         0.466962         0.681801
 C         3.009930        -0.971394         0.751820
 O         1.639415        -0.772705         0.753137
 H         4.422231        -1.024829        -2.486666
 H         5.522545        -0.541175        -1.249224
 H         4.635118        -2.104337        -1.092548
 H        -0.618580         0.741629         0.477144
 H        -0.342804         1.086064        -1.204751
 H        -0.427088        -0.675721        -0.617949
 H         2.820437         2.066076        -0.440426
 H         2.211186         2.014250         1.390128
 H         4.357177         0.754323         1.358734
 H         3.600533        -1.755438         1.194461
