19
Iteration:  2369
 C         4.628888        -0.991012        -1.416443
 C         3.469256        -0.504343        -0.585513
 O         2.234326        -0.138807        -1.325195
 C         1.532739         0.293519        -0.148528
 C         0.097530         0.553166        -0.408960
 C         2.434024         1.332508         0.515263
 C         3.580464         0.433177         0.650845
 C         3.041393        -0.966457         0.771587
 O         1.608346        -0.858414         0.770546
 H         4.806429        -2.125015        -1.280557
 H         4.530468        -0.896113        -2.584812
 H         5.616007        -0.486855        -1.083556
 H        -0.503072         0.776622         0.477348
 H         0.049354         1.463229        -0.939218
 H        -0.253320        -0.383439        -0.858322
 H         2.728636         2.134129        -0.247487
 H         1.901683         1.900250         1.343041
 H         4.491216         0.907975         0.928519
 H         3.414180        -1.895882         1.251488
