19
Iteration:  4249charge 0 multiplicity 1
 C         4.519641        -1.041385        -1.480064
 C         3.484097        -0.534672        -0.575352
 O         2.165610        -0.537283        -1.156823
 C         1.484301         0.141360        -0.173402
 C        -0.005895         0.156686        -0.334392
 C         2.332116         1.414646         0.123597
 C         3.630267         0.734838         0.230820
 C         3.256005        -0.575573         0.948485
 O         1.818450        -0.551728         1.103286
 H         5.472262        -0.907314        -0.916247
 H         4.419538        -2.123659        -1.660311
 H         4.555360        -0.518725        -2.414908
 H        -0.578383         0.579774         0.538243
 H        -0.370190         0.683419        -1.248883
 H        -0.352777        -0.930972        -0.627604
 H         2.180220         2.399315        -0.369355
 H         1.907164         1.570659         1.236874
 H         4.477126         1.377091         0.454478
 H         3.825089        -1.009560         1.668967
