19
Iteration:  3977charge 0 multiplicity 1
 C         4.562242        -1.234882        -1.406139
 C         3.470604        -0.389730        -0.614400
 O         2.193031        -0.261568        -1.205799
 C         1.447695         0.125794         0.002608
 C         0.017514         0.244882        -0.441630
 C         2.306481         1.449810         0.212530
 C         3.567799         0.780998         0.372394
 C         3.273243        -0.672997         0.804698
 O         1.813066        -0.809508         1.080341
 H         4.720443        -2.195218        -0.929929
 H         4.086441        -1.215439        -2.484400
 H         5.466162        -0.626336        -1.275146
 H        -0.708812         0.552318         0.230954
 H         0.012154         0.862412        -1.330177
 H        -0.373084        -0.733714        -0.714533
 H         2.303733         1.925067        -0.707716
 H         2.002078         2.115223         1.022841
 H         4.404626         1.373350         0.421745
 H         3.926676        -1.317352         1.300768
