19
Iteration:  1818charge 0 multiplicity 1
 C         4.521873        -0.996201        -1.476439
 C         3.534339        -0.416436        -0.557940
 O         2.334484         0.077490        -1.229805
 C         1.494882         0.267364        -0.114134
 C         0.114879         0.570312        -0.577301
 C         2.461356         1.287081         0.508549
 C         3.640142         0.341430         0.740379
 C         2.963671        -1.117316         0.770686
 O         1.589654        -0.882181         0.767364
 H         3.952625        -1.107008        -2.328090
 H         5.261294        -0.245250        -1.716150
 H         4.910582        -1.924698        -1.175360
 H        -0.356027         0.926259         0.313029
 H         0.060929         1.344125        -1.320920
 H        -0.334227        -0.339670        -0.921020
 H         2.812321         1.985799        -0.354630
 H         2.047518         1.801807         1.469621
 H         4.464738         0.537451         1.392503
 H         3.302061        -2.086100         1.190124
