19
Iteration:  4794charge 0 multiplicity 1
 C         4.437440        -1.224677        -1.434161
 C         3.557133        -0.478039        -0.602045
 O         2.293602        -0.427118        -1.142581
 C         1.485786         0.158069        -0.096851
 C        -0.038296         0.064193        -0.328463
 C         2.179304         1.488090         0.139209
 C         3.588147         0.853461         0.297874
 C         3.328011        -0.550767         0.917524
 O         1.806858        -0.613212         0.996412
 H         5.489878        -0.980050        -1.324725
 H         4.502273        -2.301386        -1.121027
 H         4.145863        -1.114084        -2.436366
 H        -0.480554         0.485941         0.582113
 H        -0.320642         0.508368        -1.285311
 H        -0.105207        -0.997654        -0.298383
 H         2.113743         2.363328        -0.680031
 H         1.849079         2.047074         1.142300
 H         4.476591         1.373733         0.300209
 H         3.959129        -1.209931         1.424980
