19
Iteration:  3600
 C         4.646363        -1.047854        -1.349599
 C         3.433699        -0.592403        -0.660882
 O         2.136686        -0.422489        -1.223112
 C         1.465265         0.269027        -0.110206
 C        -0.038247         0.217886        -0.281595
 C         2.394015         1.476792         0.161326
 C         3.617747         0.665045         0.338076
 C         3.151923        -0.687557         0.858553
 O         1.781263        -0.673165         1.006325
 H         5.549897        -1.210114        -0.690005
 H         4.489294        -1.879603        -2.002631
 H         5.154580        -0.296541        -2.148542
 H        -0.469770         0.530952         0.636141
 H        -0.242488         0.860801        -1.088580
 H        -0.404979        -0.772756        -0.424717
 H         2.420239         2.033880        -0.705440
 H         2.114819         2.058607         1.038988
 H         4.597504         1.132673         0.552906
 H         3.730420        -1.292457         1.510779
