19
Iteration:  1488charge 0 multiplicity 1
 C         4.668567        -1.071234        -1.316653
 C         3.448993        -0.546530        -0.600173
 O         2.323248         0.073212        -1.296244
 C         1.500469         0.372787        -0.074858
 C         0.028308         0.643413        -0.454637
 C         2.509990         1.299546         0.658202
 C         3.695517         0.293834         0.644288
 C         2.946127        -1.097991         0.642335
 O         1.509893        -0.831242         0.616266
 H         5.509176        -1.070208        -0.665217
 H         4.607971        -2.188586        -1.545081
 H         4.825726        -0.420044        -2.188871
 H        -0.712824         0.723269         0.328646
 H        -0.038403         1.563807        -1.095732
 H        -0.245033        -0.133111        -1.104683
 H         2.861970         2.186715         0.064828
 H         2.028582         1.581491         1.597019
 H         4.716145         0.447907         1.082547
 H         3.216575        -2.033845         1.089428
