19
Iteration:  2126
 C         4.469335        -1.019923        -1.502139
 C         3.513955        -0.386366        -0.526395
 O         2.265191        -0.099310        -1.193722
 C         1.499322         0.250254        -0.135974
 C         0.141754         0.697316        -0.629589
 C         2.406239         1.313816         0.567490
 C         3.572501         0.425059         0.730026
 C         3.080279        -1.045159         0.786431
 O         1.676692        -0.950253         0.777396
 H         3.953457        -0.995339        -2.573714
 H         5.506669        -0.654415        -1.566895
 H         4.668810        -2.145195        -1.256035
 H        -0.620108         1.055744         0.023085
 H         0.419740         1.460692        -1.234776
 H        -0.300938         0.020515        -1.313715
 H         2.619606         2.037465        -0.248435
 H         2.154919         1.737214         1.603291
 H         4.471349         0.740445         1.231173
 H         3.535712        -2.037544         1.200191
