19
Iteration:  4042charge 0 multiplicity 1
 C         4.613768        -1.063690        -1.392981
 C         3.456534        -0.521770        -0.609681
 O         2.165257        -0.348167        -1.178954
 C         1.443788         0.175739        -0.071819
 C        -0.053141         0.172561        -0.296665
 C         2.335884         1.433231         0.081422
 C         3.571481         0.692441         0.373822
 C         3.216701        -0.708532         0.829574
 O         1.828943        -0.640900         1.031854
 H         4.446476        -1.759971        -2.238697
 H         5.294825        -0.102138        -1.882881
 H         5.282138        -1.753743        -0.782108
 H        -0.597636         0.663118         0.451393
 H        -0.204101         0.737305        -1.204838
 H        -0.326296        -0.842996        -0.579588
 H         2.456052         1.980053        -0.816839
 H         2.100826         2.115603         0.931397
 H         4.513770         1.178564         0.567529
 H         3.784886        -1.300904         1.627873
