19
Iteration:  3983
 C         4.546617        -1.227717        -1.383636
 C         3.501389        -0.422121        -0.606769
 O         2.201501        -0.277520        -1.230365
 C         1.448728         0.146756        -0.019365
 C        -0.006122         0.262801        -0.442747
 C         2.242013         1.456946         0.236664
 C         3.544655         0.792583         0.378215
 C         3.321347        -0.676300         0.812892
 O         1.823114        -0.807087         1.057653
 H         4.539759        -2.283941        -1.029745
 H         4.342215        -1.292362        -2.477199
 H         5.521386        -0.723600        -1.310850
 H        -0.684065         0.572074         0.467979
 H         0.032536         0.927633        -1.340986
 H        -0.417059        -0.761212        -0.588257
 H         2.245607         2.075481        -0.784686
 H         1.980899         2.138369         1.048273
 H         4.549475         1.370337         0.425901
 H         3.995209        -1.414132         1.335525
