19
Iteration:   255
 C         4.610166        -1.066216        -1.288980
 C         3.407572        -0.441638        -0.633158
 O         2.112694        -0.524667        -1.245821
 C         1.398749         0.107053         0.020931
 C        -0.119517        -0.078460        -0.125708
 C         2.346989         1.477990        -0.145574
 C         3.649263         0.866495         0.271540
 C         3.299332        -0.499051         0.824722
 O         1.899031        -0.544929         1.114127
 H         5.221077        -1.527498        -0.546846
 H         4.335749        -1.868092        -1.974681
 H         5.265015        -0.366513        -1.816251
 H        -0.751119         0.327963         0.649336
 H        -0.397752         0.211865        -1.184038
 H        -0.266582        -1.150056        -0.235911
 H         2.349266         1.665507        -1.236522
 H         2.085285         2.484721         0.305560
 H         4.654842         1.243776         0.260730
 H         3.887174        -1.047212         1.486936
