19
Iteration:  4697charge 0 multiplicity 1
 C         4.625835        -0.956381        -1.477617
 C         3.573182        -0.613744        -0.512419
 O         2.138100        -0.580927        -1.148282
 C         1.475266         0.110571        -0.169839
 C        -0.086840         0.210963        -0.273723
 C         2.293506         1.404532         0.011718
 C         3.616642         0.799517         0.241940
 C         3.220229        -0.630078         0.921617
 O         1.777948        -0.562481         1.130690
 H         5.582394        -1.423361        -1.167152
 H         4.416597        -1.888021        -2.183051
 H         4.833167        -0.082567        -2.030290
 H        -0.225087         0.612502         0.718390
 H        -0.372740         0.852631        -1.103625
 H        -0.421453        -0.777150        -0.390553
 H         2.186444         1.971251        -0.991992
 H         1.987446         2.059937         0.924077
 H         4.537520         1.241636         0.503568
 H         3.884677        -0.934643         1.787638
