19
Iteration:  1964
 C         4.509485        -0.994872        -1.425823
 C         3.447318        -0.486016        -0.611679
 O         2.283969        -0.016385        -1.184135
 C         1.494240         0.340114        -0.013007
 C         0.103699         0.575265        -0.638104
 C         2.485289         1.347744         0.645886
 C         3.715258         0.328184         0.655375
 C         2.983746        -1.069231         0.713348
 O         1.602386        -0.876007         0.704327
 H         4.314290        -2.078226        -1.567902
 H         4.546766        -0.490647        -2.303148
 H         5.435114        -0.755009        -0.905552
 H        -0.777176         0.790188         0.036404
 H         0.266677         1.437003        -1.310495
 H        -0.199328        -0.349324        -1.224603
 H         2.874557         2.043693        -0.093732
 H         2.175832         1.973318         1.506901
 H         4.730917         0.418818         1.067208
 H         3.259849        -1.955639         1.236064
