19
Iteration:  1095charge 0 multiplicity 1
 C         4.590018        -1.010128        -1.421848
 C         3.511211        -0.464471        -0.602844
 O         2.247183        -0.238431        -1.295079
 C         1.487624         0.211242        -0.146198
 C         0.110434         0.650337        -0.478462
 C         2.323894         1.289336         0.570837
 C         3.622828         0.522879         0.586309
 C         3.119751        -0.899148         0.754291
 O         1.665990        -0.888600         0.792244
 H         4.147189        -1.834363        -2.003783
 H         5.103587        -0.314922        -2.113216
 H         5.274850        -1.483997        -0.723721
 H        -0.540373         0.996838         0.368535
 H         0.128160         1.485948        -1.224776
 H        -0.282908        -0.251035        -1.029795
 H         2.277228         2.305421         0.025014
 H         1.875894         1.475182         1.644136
 H         4.417550         0.955256         1.143614
 H         3.482172        -1.660214         1.482209
