19
Iteration:  2241charge 0 multiplicity 1
 C         4.615012        -1.005376        -1.472670
 C         3.551064        -0.439889        -0.636132
 O         2.262859        -0.191922        -1.299135
 C         1.486113         0.304443        -0.213590
 C         0.040509         0.663790        -0.551561
 C         2.339116         1.276638         0.627415
 C         3.673850         0.393544         0.611906
 C         3.021414        -1.000287         0.837581
 O         1.625624        -0.804335         0.865146
 H         5.465862        -0.363494        -1.457021
 H         4.972258        -2.080491        -1.157998
 H         4.245498        -1.036016        -2.476065
 H        -0.467405         0.917573         0.452134
 H         0.294808         1.523268        -1.376068
 H        -0.361133        -0.194241        -1.137368
 H         2.431331         2.385042         0.282343
 H         1.931419         1.107563         1.686440
 H         4.685735         0.482266         0.976005
 H         3.537824        -1.865973         1.387673
