19
Iteration:  1170
 C         4.645741        -1.014141        -1.520277
 C         3.512220        -0.538778        -0.534737
 O         2.318735        -0.061703        -1.281995
 C         1.479362         0.388317        -0.198966
 C        -0.039719         0.492554        -0.484933
 C         2.482046         1.328869         0.546701
 C         3.643124         0.386306         0.733284
 C         3.000773        -1.009720         0.748281
 O         1.615002        -0.800928         0.772306
 H         5.626937        -1.227346        -0.981063
 H         4.248719        -1.885829        -2.014427
 H         4.901217        -0.148138        -2.178047
 H        -0.525120         0.639274         0.498886
 H        -0.386259         1.316054        -1.112659
 H        -0.333409        -0.465977        -0.966222
 H         2.633774         2.224996         0.070231
 H         1.945918         1.547026         1.404939
 H         4.592897         0.530049         1.254235
 H         3.355257        -1.875592         1.376237
