19
Iteration:  4313
 C         4.535884        -1.231193        -1.363567
 C         3.495936        -0.411881        -0.630651
 O         2.244881        -0.460002        -1.224361
 C         1.501972         0.122923        -0.120959
 C        -0.055797         0.107031        -0.210926
 C         2.218526         1.532722         0.170940
 C         3.552598         0.848959         0.243163
 C         3.288093        -0.587899         0.863079
 O         1.885676        -0.645551         0.989199
 H         4.853838        -1.932495        -0.631059
 H         3.930467        -1.573733        -2.157289
 H         5.472219        -0.757255        -1.749689
 H        -0.534377         0.711551         0.584332
 H        -0.215925         0.690261        -1.134479
 H        -0.540673        -0.930667        -0.353891
 H         2.078642         2.201251        -0.676325
 H         1.857799         1.692758         1.127537
 H         4.525901         1.316934         0.327287
 H         3.728263        -1.046013         1.688900
