19
Iteration:  1947charge 0 multiplicity 1
 C         4.633889        -1.019212        -1.431586
 C         3.476719        -0.477608        -0.621866
 O         2.259244        -0.042132        -1.337557
 C         1.566162         0.370928        -0.121064
 C         0.099772         0.550756        -0.520840
 C         2.544315         1.292698         0.621896
 C         3.599166         0.304114         0.710243
 C         2.932456        -1.040049         0.716549
 O         1.526445        -0.776402         0.786384
 H         4.412326        -2.001844        -1.858432
 H         4.925619        -0.242243        -2.316109
 H         5.530448        -1.143585        -0.783709
 H        -0.503464         0.618974         0.395899
 H        -0.165083         1.364227        -1.191734
 H        -0.122084        -0.446070        -0.956801
 H         2.682035         2.294254         0.146271
 H         2.157263         1.524290         1.618461
 H         4.545326         0.614310         1.098607
 H         3.411193        -2.010770         1.095764
