19
Iteration:   456charge 0 multiplicity 1
 C         4.523896        -1.112403        -1.438013
 C         3.521943        -0.478557        -0.621378
 O         2.223428        -0.516482        -1.202681
 C         1.472294         0.168002        -0.132310
 C         0.073918         0.042897        -0.330949
 C         2.219202         1.428232         0.185860
 C         3.579019         0.802735         0.201206
 C         3.278880        -0.562709         0.905736
 O         1.792308        -0.529762         1.113817
 H         4.379723        -2.227866        -1.290148
 H         4.358589        -0.926496        -2.518569
 H         5.516378        -0.760580        -1.159549
 H        -0.469241         0.571086         0.418289
 H        -0.341663         0.550794        -1.187986
 H        -0.320563        -0.939510        -0.333222
 H         2.099746         2.351719        -0.478587
 H         1.946884         1.658615         1.224035
 H         4.469751         1.380598         0.480122
 H         3.766918        -1.125396         1.704643
