19
Iteration:    15charge 0 multiplicity 1
 C         4.487195        -1.070170        -1.477959
 C         3.471509        -0.355535        -0.635295
 O         2.111215        -0.599348        -1.146322
 C         1.489057         0.060096        -0.025993
 C         0.108982        -0.125745        -0.133137
 C         2.188546         1.426348        -0.236750
 C         3.591987         0.987583         0.237084
 C         3.322238        -0.395435         0.952996
 O         1.885293        -0.561755         1.241003
 H         5.558492        -0.772970        -1.250108
 H         4.304745        -2.181341        -1.133782
 H         4.257065        -1.040982        -2.629646
 H        -0.419998         0.269197         0.746010
 H        -0.287959         0.303763        -1.005385
 H        -0.043275        -1.215902        -0.144707
 H         2.216747         1.404014        -1.366484
 H         1.718801         2.244120         0.210883
 H         4.567093         1.464523        -0.000337
 H         3.954841        -0.965551         1.582084
