19
Iteration:  3814
 C         4.461648        -1.116875        -1.429767
 C         3.482802        -0.443668        -0.583875
 O         2.227211        -0.254989        -1.250918
 C         1.462333         0.184155         0.017812
 C         0.034926         0.132608        -0.457762
 C         2.357938         1.467069         0.152530
 C         3.633030         0.706106         0.485149
 C         3.204224        -0.705759         0.855585
 O         1.761423        -0.741851         1.032252
 H         5.552522        -0.936727        -1.335309
 H         4.154342        -2.202860        -1.577324
 H         4.352173        -0.725799        -2.424095
 H        -0.529483         0.433609         0.451281
 H         0.082778         0.959573        -1.287490
 H        -0.385375        -0.920310        -0.608473
 H         2.563953         1.929949        -0.797336
 H         2.047045         2.270231         0.914707
 H         4.612174         1.247154         0.909884
 H         3.770899        -1.536753         1.461938
