19
Iteration:   413
 C         4.543814        -1.157042        -1.383330
 C         3.527283        -0.362692        -0.617299
 O         2.208100        -0.442468        -1.146877
 C         1.432794         0.029702         0.005372
 C        -0.020139         0.155666        -0.314789
 C         2.183669         1.436797         0.000575
 C         3.568834         0.831731         0.185784
 C         3.310626        -0.503433         0.896145
 O         1.886444        -0.744463         1.128968
 H         3.933949        -1.698183        -2.184600
 H         5.225671        -0.366050        -1.807166
 H         5.073173        -1.878393        -0.719883
 H        -0.619209         0.602072         0.450779
 H        -0.102659         0.911747        -1.096564
 H        -0.331171        -0.814752        -0.614400
 H         2.025832         1.811621        -1.049771
 H         1.880916         1.982735         0.862563
 H         4.431435         1.471247         0.416224
 H         4.094633        -0.954333         1.448072
