19
Iteration:  2599
 C         4.601085        -1.052028        -1.421428
 C         3.509131        -0.451095        -0.577018
 O         2.316627        -0.182742        -1.348148
 C         1.457874         0.274380        -0.096307
 C         0.003655         0.389107        -0.381381
 C         2.417807         1.392085         0.421590
 C         3.657446         0.506989         0.672760
 C         3.060218        -0.871580         0.754362
 O         1.669102        -0.813549         0.805624
 H         5.351907        -0.381108        -1.853639
 H         4.992711        -1.875327        -0.858747
 H         4.131114        -1.349075        -2.340186
 H        -0.643498         0.834817         0.413362
 H        -0.336834         1.091630        -1.237933
 H        -0.430449        -0.620530        -0.563937
 H         2.342302         2.203003        -0.333487
 H         2.005005         1.941405         1.293370
 H         4.562446         0.840252         1.099983
 H         3.454562        -1.749383         1.262786
