19
Iteration:  1608
 C         4.684736        -0.969212        -1.457085
 C         3.484783        -0.551877        -0.565157
 O         2.363685        -0.013003        -1.277454
 C         1.518389         0.399841        -0.140474
 C         0.065460         0.660401        -0.493239
 C         2.537308         1.247773         0.675559
 C         3.625151         0.273523         0.707193
 C         2.887116        -1.057287         0.760293
 O         1.466403        -0.844300         0.629448
 H         5.574924        -1.014722        -0.922523
 H         4.561685        -1.972161        -1.833353
 H         4.808650        -0.282591        -2.264160
 H        -0.448438         0.961749         0.413762
 H        -0.169905         1.356860        -1.294802
 H        -0.283214        -0.281389        -0.840012
 H         2.951322         2.111638        -0.015051
 H         2.149043         1.588254         1.674729
 H         4.515720         0.562275         1.228564
 H         3.099318        -2.099583         1.044245
