19
Iteration:  2464charge 0 multiplicity 1
 C         4.682007        -1.144857        -1.404672
 C         3.500661        -0.483426        -0.674918
 O         2.250053        -0.084505        -1.307576
 C         1.494062         0.247516        -0.222123
 C        -0.010546         0.527467        -0.422355
 C         2.325394         1.319844         0.575982
 C         3.616883         0.496607         0.527872
 C         3.078028        -0.849411         0.834876
 O         1.692210        -0.858429         0.791888
 H         4.436192        -1.335625        -2.442786
 H         5.509423        -0.572798        -1.471798
 H         4.878178        -2.057790        -0.853372
 H        -0.390087         0.951813         0.549520
 H        -0.046626         1.398092        -1.076322
 H        -0.537142        -0.467840        -0.642996
 H         2.506379         2.230301         0.145585
 H         1.908187         1.456943         1.533605
 H         4.536942         0.802222         0.990074
 H         3.564750        -1.433402         1.605813
