19
Iteration:  1861
 C         4.632545        -0.992288        -1.515267
 C         3.536135        -0.536788        -0.557748
 O         2.256870        -0.068669        -1.269365
 C         1.507868         0.299816        -0.151450
 C         0.082527         0.600907        -0.583149
 C         2.455766         1.295591         0.733625
 C         3.719795         0.386214         0.594712
 C         2.943005        -0.981571         0.773096
 O         1.542295        -0.833584         0.763339
 H         4.286365        -1.067836        -2.498453
 H         5.520402        -0.321065        -1.515487
 H         4.880346        -1.987494        -1.225646
 H        -0.561945         0.801632         0.234024
 H         0.019462         1.404872        -1.278230
 H        -0.368775        -0.221458        -1.074588
 H         2.382997         2.324819         0.234633
 H         2.152506         1.140557         1.821824
 H         4.704912         0.472660         1.018335
 H         3.343579        -1.721729         1.524297
