19
Iteration:   667charge 0 multiplicity 1
 C         4.606144        -0.983633        -1.406754
 C         3.510860        -0.447304        -0.603647
 O         2.146547        -0.458014        -1.180707
 C         1.463982         0.156836        -0.030994
 C         0.008180         0.340808        -0.377522
 C         2.279440         1.373352         0.171031
 C         3.600632         0.771927         0.355328
 C         3.194749        -0.710407         0.889851
 O         1.807801        -0.807016         0.979183
 H         4.334081        -2.001758        -1.821036
 H         4.772632        -0.395671        -2.327824
 H         5.517882        -1.304719        -0.759862
 H        -0.499984         0.921884         0.402752
 H         0.070747         0.858777        -1.293646
 H        -0.432819        -0.663476        -0.569876
 H         2.298087         2.037072        -0.713349
 H         1.971585         2.059274         1.039283
 H         4.555216         1.333717         0.544668
 H         3.855090        -1.381959         1.439580
