19
Iteration:   163charge 0 multiplicity 1
 C         4.521845        -1.094152        -1.433977
 C         3.472185        -0.495787        -0.603485
 O         2.156048        -0.580123        -1.082223
 C         1.438307         0.080903         0.025020
 C        -0.016790        -0.186362        -0.278583
 C         2.272045         1.559938        -0.074957
 C         3.576978         0.861758         0.103251
 C         3.283858        -0.391625         0.875989
 O         1.925881        -0.475930         1.207570
 H         4.039412        -1.642530        -2.264305
 H         5.120640        -0.326053        -1.885052
 H         5.145256        -1.766470        -0.870450
 H        -0.832237         0.220740         0.365634
 H        -0.151902         0.201456        -1.278478
 H        -0.195009        -1.288189        -0.401212
 H         2.004526         2.096596        -0.998866
 H         2.029939         2.171150         0.824489
 H         4.596067         1.284651         0.278906
 H         4.037687        -0.816490         1.557683
