19
Iteration:  1414charge 0 multiplicity 1
 C         4.543829        -0.928046        -1.519584
 C         3.446616        -0.561612        -0.574724
 O         2.343130        -0.019029        -1.270740
 C         1.551111         0.342708        -0.096474
 C         0.183260         0.649735        -0.622332
 C         2.458810         1.302846         0.629436
 C         3.664053         0.303688         0.803306
 C         2.940336        -1.062418         0.687669
 O         1.509461        -0.887509         0.802283
 H         4.856609        -1.985037        -1.432471
 H         4.257075        -0.803598        -2.672981
 H         5.465833        -0.340674        -1.246889
 H        -0.591067         1.033890         0.080346
 H         0.309231         1.405475        -1.487912
 H        -0.245275        -0.290255        -0.942704
 H         2.529320         2.153601         0.012800
 H         2.076235         1.571211         1.602252
 H         4.618653         0.396908         1.387198
 H         3.303186        -1.950858         1.184137
