19
Iteration:  2971charge 0 multiplicity 1
 C         4.532782        -1.060594        -1.533896
 C         3.482820        -0.458579        -0.513502
 O         2.208072        -0.187772        -1.187165
 C         1.507388         0.238909        -0.135190
 C         0.057243         0.410366        -0.501886
 C         2.395612         1.377059         0.321984
 C         3.662866         0.611733         0.590202
 C         3.137766        -0.897978         0.884790
 O         1.719732        -0.845740         0.883119
 H         5.387404        -1.663580        -1.247860
 H         3.715616        -1.617070        -2.115970
 H         4.920050        -0.146164        -1.931492
 H        -0.522245         0.828871         0.366292
 H         0.010894         1.028779        -1.416952
 H        -0.457697        -0.569256        -0.797119
 H         2.422840         2.101869        -0.428212
 H         1.994099         1.776221         1.182179
 H         4.532984         1.019035         0.963144
 H         3.519467        -1.626125         1.621198
