19
Iteration:   489charge 0 multiplicity 1
 C         4.592951        -1.070819        -1.447412
 C         3.529599        -0.484566        -0.578222
 O         2.154687        -0.427706        -1.162320
 C         1.462179         0.246719        -0.049289
 C        -0.107791         0.029219        -0.264089
 C         2.318827         1.492800         0.002187
 C         3.562322         0.705398         0.334004
 C         3.290168        -0.602246         0.908662
 O         1.821105        -0.647412         0.987912
 H         5.064686        -1.805000        -0.742403
 H         4.127947        -1.401772        -2.393639
 H         5.403676        -0.357958        -1.628055
 H        -0.551330         0.583095         0.534696
 H        -0.302080         0.456854        -1.253240
 H        -0.249047        -1.009135        -0.175693
 H         2.477905         2.002739        -1.039906
 H         2.014804         2.120415         0.834807
 H         4.496671         1.234728         0.692674
 H         3.806342        -1.169996         1.770798
