19
Iteration:   398charge 0 multiplicity 1
 C         4.595648        -1.114269        -1.420446
 C         3.475882        -0.497174        -0.591768
 O         2.181779        -0.549403        -1.186837
 C         1.505358         0.122958        -0.128277
 C        -0.015639         0.108775        -0.237565
 C         2.148042         1.435280         0.082757
 C         3.557718         0.848186         0.265217
 C         3.282495        -0.508452         0.902273
 O         1.909162        -0.589522         1.038951
 H         4.207555        -1.499932        -2.352088
 H         5.475227        -0.553623        -1.680984
 H         4.912026        -2.040740        -0.964983
 H        -0.355382         0.384721         0.814883
 H        -0.227688         0.758206        -1.094836
 H        -0.409212        -0.935196        -0.501131
 H         2.062749         2.108777        -0.763206
 H         1.756226         2.099977         0.963049
 H         4.492201         1.394638         0.369521
 H         3.724797        -0.989013         1.789776
