19
Iteration:  4000charge 0 multiplicity 1
 C         4.561188        -1.243980        -1.402054
 C         3.516676        -0.404334        -0.609057
 O         2.227000        -0.392609        -1.221357
 C         1.479793         0.152570        -0.151356
 C        -0.014026         0.260379        -0.320918
 C         2.201333         1.460795         0.273545
 C         3.623415         0.749580         0.356481
 C         3.221650        -0.608130         0.843328
 O         1.877776        -0.720283         0.925499
 H         4.331260        -2.301892        -1.204853
 H         4.393170        -0.881496        -2.521339
 H         5.514403        -1.019225        -0.868434
 H        -0.575905         0.646952         0.521099
 H        -0.241387         0.877021        -1.171719
 H        -0.576170        -0.675433        -0.441544
 H         2.078861         2.220680        -0.418304
 H         1.742933         1.693388         1.268880
 H         4.486438         1.268801         0.713960
 H         3.782377        -1.175515         1.647618
