19
Iteration:  3932
 C         4.600817        -1.020431        -1.579638
 C         3.522175        -0.584305        -0.533891
 O         2.256207        -0.478118        -1.208907
 C         1.496673         0.265585        -0.277376
 C        -0.021509         0.202548        -0.369648
 C         2.307822         1.436709         0.241116
 C         3.669815         0.686112         0.429807
 C         3.093817        -0.682314         0.942745
 O         1.759536        -0.610857         1.064161
 H         5.430302        -1.567846        -1.102678
 H         3.944032        -1.758940        -2.262710
 H         4.896266        -0.101667        -2.096449
 H        -0.365808         0.448905         0.559480
 H        -0.258603         0.944256        -1.125642
 H        -0.504143        -0.734825        -0.409156
 H         2.320741         2.305543        -0.384109
 H         1.857202         1.698690         1.169591
 H         4.641715         1.113526         0.716984
 H         3.439243        -1.323571         1.692152
