19
Iteration:  1518charge 0 multiplicity 1
 C         4.636653        -1.072540        -1.424889
 C         3.505398        -0.438836        -0.540444
 O         2.291622         0.100908        -1.308606
 C         1.541533         0.324718        -0.154531
 C         0.119054         0.641659        -0.462649
 C         2.518633         1.342442         0.639518
 C         3.630841         0.290257         0.779999
 C         2.910901        -1.126035         0.689230
 O         1.503678        -0.908281         0.635207
 H         5.653579        -0.895867        -1.031435
 H         4.469781        -2.090683        -1.325170
 H         4.430989        -0.855881        -2.444778
 H        -0.555919         0.705870         0.369240
 H         0.057390         1.613922        -0.961068
 H        -0.253575        -0.029118        -1.237126
 H         2.986350         2.054338        -0.220166
 H         1.976693         1.840543         1.505863
 H         4.627509         0.365016         1.266751
 H         3.202713        -2.075901         1.205928
