19
Iteration:   614charge 0 multiplicity 1
 C         4.567660        -1.089006        -1.448338
 C         3.496864        -0.456850        -0.589313
 O         2.251047        -0.436890        -1.190205
 C         1.523717         0.217952        -0.219142
 C        -0.038465         0.140354        -0.341274
 C         2.274779         1.465886         0.250256
 C         3.639510         0.747435         0.330936
 C         3.209986        -0.646330         0.883966
 O         1.729169        -0.649882         0.999692
 H         4.240225        -0.915368        -2.525335
 H         5.628948        -0.736630        -1.198722
 H         4.367572        -2.240722        -1.262633
 H        -0.286774         0.297472         0.720681
 H        -0.437128         0.711267        -1.149865
 H        -0.230706        -0.956053        -0.489808
 H         2.197791         2.330102        -0.341625
 H         1.915565         1.676983         1.306469
 H         4.677492         1.040425         0.628685
 H         3.838995        -1.118455         1.629532
