19
Iteration:  1194charge 0 multiplicity 1
 C         4.608424        -1.059416        -1.400892
 C         3.428893        -0.424460        -0.607356
 O         2.298513        -0.007785        -1.280571
 C         1.476303         0.211982        -0.046925
 C         0.158900         0.571075        -0.469487
 C         2.436827         1.323211         0.605997
 C         3.602341         0.497895         0.562910
 C         3.013210        -1.032986         0.717144
 O         1.607217        -0.928379         0.710979
 H         5.481205        -0.697683        -0.928766
 H         4.502759        -2.169102        -1.199002
 H         4.763199        -0.746884        -2.417122
 H        -0.391053         0.953810         0.434905
 H         0.199850         1.402819        -1.154448
 H        -0.399046        -0.314748        -0.991631
 H         2.522114         2.189192        -0.106007
 H         1.935751         1.767077         1.498300
 H         4.553134         0.726136         1.097217
 H         3.320487        -1.931109         1.211084
