19
Iteration:  1173charge 0 multiplicity 1
 C         4.656200        -1.024786        -1.496127
 C         3.517019        -0.532355        -0.555447
 O         2.324959        -0.051921        -1.292357
 C         1.480935         0.404837        -0.174259
 C        -0.023724         0.501573        -0.472887
 C         2.453320         1.319743         0.531466
 C         3.632167         0.360430         0.737329
 C         3.016338        -1.002809         0.736894
 O         1.610453        -0.815018         0.770028
 H         5.553514        -1.132142        -0.988353
 H         4.249248        -1.972492        -1.933896
 H         4.767166        -0.195558        -2.152577
 H        -0.582378         0.640892         0.493864
 H        -0.283225         1.319511        -1.140671
 H        -0.348145        -0.495604        -0.967163
 H         2.558814         2.321412        -0.045638
 H         1.964166         1.608472         1.564048
 H         4.642807         0.521489         1.187874
 H         3.407634        -1.812373         1.325330
