19
Iteration:   273charge 0 multiplicity 1
 C         4.566316        -1.083488        -1.361093
 C         3.456105        -0.429926        -0.622984
 O         2.153074        -0.554447        -1.098585
 C         1.443329         0.188822        -0.025904
 C        -0.071389        -0.051644        -0.263916
 C         2.231795         1.487709        -0.058945
 C         3.616770         0.811682         0.201610
 C         3.314225        -0.513838         0.866567
 O         1.916598        -0.560150         1.108510
 H         5.482376        -0.972556        -0.744974
 H         4.362973        -2.152986        -1.468064
 H         4.778711        -0.662531        -2.344940
 H        -0.652142         0.553634         0.449940
 H        -0.296560         0.310494        -1.275862
 H        -0.237397        -1.122224        -0.131884
 H         2.203289         1.871937        -1.107143
 H         1.843556         2.124550         0.675141
 H         4.519470         1.406484         0.143270
 H         3.880735        -1.182118         1.510307
