19
Iteration:   944charge 0 multiplicity 1
 C         4.644017        -0.991853        -1.461717
 C         3.493560        -0.510251        -0.572065
 O         2.285728        -0.249035        -1.271342
 C         1.462567         0.317743        -0.159665
 C         0.008060         0.364496        -0.401719
 C         2.435634         1.417992         0.411603
 C         3.635588         0.506473         0.521026
 C         3.026896        -0.874854         0.824322
 O         1.631145        -0.757215         0.890558
 H         5.616312        -1.094333        -0.932352
 H         4.495286        -2.048636        -1.877137
 H         4.838542        -0.426165        -2.350084
 H        -0.604326         0.456193         0.485290
 H        -0.272764         1.030279        -1.186547
 H        -0.296124        -0.581301        -0.793685
 H         2.602106         2.268214        -0.308579
 H         2.230402         1.751170         1.456561
 H         4.536231         0.937733         0.911044
 H         3.387239        -1.698517         1.421535
