19
Iteration:  4208charge 0 multiplicity 1
 C         4.501539        -1.023871        -1.478206
 C         3.518000        -0.450504        -0.577689
 O         2.195162        -0.493484        -1.096069
 C         1.444898         0.121864        -0.036067
 C        -0.017000         0.276502        -0.359175
 C         2.265394         1.349490        -0.010682
 C         3.608663         0.828290         0.310221
 C         3.234159        -0.644875         0.888177
 O         1.846145        -0.730218         1.110551
 H         5.492899        -0.578458        -1.539300
 H         5.032286        -1.925342        -1.021603
 H         4.158809        -1.192324        -2.458157
 H        -0.543261         0.764713         0.453473
 H         0.090024         0.923578        -1.215397
 H        -0.419931        -0.702859        -0.587601
 H         2.209409         1.869892        -0.917532
 H         2.012369         2.153943         0.751570
 H         4.550136         1.212240         0.594226
 H         3.770345        -1.185779         1.558955
