19
Iteration:  2757
 C         4.652478        -1.116657        -1.387053
 C         3.530858        -0.473795        -0.624405
 O         2.280302        -0.135131        -1.311833
 C         1.469893         0.278497        -0.092716
 C        -0.010141         0.561266        -0.392462
 C         2.331556         1.301866         0.473250
 C         3.589048         0.560130         0.584978
 C         3.105427        -0.870104         0.756450
 O         1.669056        -0.883549         0.771871
 H         4.403120        -1.200124        -2.490186
 H         5.562102        -0.668542        -0.996950
 H         4.700269        -2.240765        -1.168900
 H        -0.321831         0.750594         0.606496
 H        -0.123359         1.235439        -1.180639
 H        -0.354400        -0.408137        -0.781836
 H         2.590328         2.197854        -0.205711
 H         2.035971         1.601502         1.559209
 H         4.483973         1.057506         0.814353
 H         3.484371        -1.669930         1.334918
