19
Iteration:  2851
 C         4.570768        -0.960359        -1.529370
 C         3.467203        -0.541601        -0.581173
 O         2.258506        -0.272922        -1.250607
 C         1.537737         0.200625        -0.115720
 C         0.044247         0.452634        -0.502241
 C         2.410376         1.378791         0.483319
 C         3.670181         0.498792         0.545335
 C         3.047615        -0.880330         0.885660
 O         1.663972        -0.703539         0.871950
 H         5.058169        -0.024946        -1.805291
 H         5.170167        -1.713849        -0.971221
 H         4.038211        -1.253867        -2.404595
 H        -0.486036         0.556754         0.482733
 H        -0.019818         1.190576        -1.353730
 H        -0.333861        -0.498734        -1.015389
 H         2.444360         2.250783        -0.115041
 H         1.871536         1.519454         1.386353
 H         4.727302         0.717840         0.831458
 H         3.475726        -1.654726         1.470730
