19
Iteration:   539
 C         4.656205        -1.112454        -1.448069
 C         3.530710        -0.559629        -0.629797
 O         2.181288        -0.579649        -1.149675
 C         1.487967         0.172721        -0.103481
 C        -0.057583         0.283110        -0.365177
 C         2.168068         1.392029         0.304098
 C         3.575588         0.794844         0.231155
 C         3.269977        -0.494980         0.838182
 O         1.857713        -0.672572         1.013866
 H         5.484910        -0.538159        -1.058507
 H         4.533756        -2.208141        -1.410082
 H         4.521208        -0.788142        -2.500780
 H        -0.561142         0.727452         0.564039
 H        -0.106288         0.872240        -1.290915
 H        -0.347458        -0.812465        -0.589571
 H         2.021293         2.128588        -0.390773
 H         1.923423         1.696641         1.380036
 H         4.497923         1.317650         0.430088
 H         3.525043        -0.826749         1.794319
