19
Iteration:  4388
 C         4.590635        -1.059815        -1.586932
 C         3.566553        -0.534119        -0.528423
 O         2.152360        -0.587715        -1.155520
 C         1.479343         0.070636        -0.111990
 C        -0.036206         0.130667        -0.266114
 C         2.266103         1.543620         0.011428
 C         3.626615         0.767610         0.329041
 C         3.237893        -0.545511         0.990919
 O         1.796190        -0.596430         1.098895
 H         4.464774        -2.185351        -1.704686
 H         4.343316        -0.518000        -2.506171
 H         5.636433        -0.616135        -1.113514
 H        -0.441797         0.691368         0.539568
 H        -0.252679         0.679306        -1.164147
 H        -0.584178        -0.769209        -0.566076
 H         2.332763         2.092612        -0.986131
 H         2.003079         2.067236         0.884641
 H         4.548407         1.349572         0.282092
 H         3.686647        -1.081065         1.874058
