19
Iteration:  4468charge 0 multiplicity 1
 C         4.574780        -1.293693        -1.392692
 C         3.516100        -0.425197        -0.595470
 O         2.202917        -0.424102        -1.201932
 C         1.472835         0.122752        -0.141235
 C         0.038660        -0.004233        -0.246170
 C         2.177667         1.498480         0.142245
 C         3.585920         0.888045         0.138895
 C         3.254280        -0.513769         0.919205
 O         1.873106        -0.593622         1.057545
 H         3.881450        -1.736248        -2.166109
 H         5.388558        -0.596748        -1.852865
 H         4.985494        -1.987926        -0.648781
 H        -0.401477         0.513538         0.658821
 H        -0.455731         0.586583        -1.082757
 H        -0.484994        -0.975746        -0.103676
 H         2.042926         2.234155        -0.557056
 H         1.810723         1.958476         1.058507
 H         4.476847         1.477839         0.332903
 H         3.788563        -1.205239         1.450439
