19
Iteration:  2117charge 0 multiplicity 1
 C         4.506823        -1.042498        -1.523034
 C         3.567097        -0.409075        -0.567383
 O         2.321201        -0.110319        -1.155194
 C         1.519142         0.283126        -0.088717
 C         0.133050         0.727159        -0.640526
 C         2.351915         1.317231         0.537549
 C         3.560909         0.423981         0.725750
 C         3.089536        -1.081974         0.748332
 O         1.609710        -0.967018         0.796784
 H         3.991056        -1.020221        -2.556627
 H         5.388158        -0.506446        -1.731108
 H         4.623771        -2.144795        -1.271418
 H        -0.356511         0.988740         0.296160
 H         0.356390         1.616951        -1.181994
 H        -0.468882         0.003690        -1.265614
 H         2.661948         2.089219        -0.257036
 H         1.791013         1.834193         1.437900
 H         4.410471         0.814688         1.272229
 H         3.648703        -1.812454         1.368711
