19
Iteration:  4519
 C         4.566343        -0.990593        -1.486180
 C         3.451928        -0.471716        -0.610173
 O         2.173640        -0.541015        -1.112218
 C         1.448477         0.103664         0.001970
 C         0.006769         0.145672        -0.369678
 C         2.272819         1.435119        -0.043344
 C         3.538857         0.741819         0.207539
 C         3.287184        -0.626705         0.947739
 O         1.866343        -0.593537         1.211745
 H         4.186334        -1.811448        -2.127186
 H         5.029996        -0.105653        -1.907412
 H         5.410285        -1.548135        -0.871451
 H        -0.661346         0.467869         0.374359
 H        -0.141573         0.787908        -1.189999
 H        -0.357086        -0.888629        -0.443238
 H         2.163084         1.943041        -1.098782
 H         1.957826         2.227960         0.656184
 H         4.556342         1.070812         0.220972
 H         4.030968        -0.793672         1.712258
