19
Iteration:   248
 C         4.628101        -1.094629        -1.280948
 C         3.436901        -0.476847        -0.621183
 O         2.104434        -0.505888        -1.239263
 C         1.456153         0.112536        -0.041111
 C        -0.110706        -0.078691        -0.139862
 C         2.337522         1.548327        -0.135587
 C         3.591934         0.820628         0.182488
 C         3.280121        -0.501686         0.847064
 O         1.893395        -0.550134         1.135414
 H         5.306574        -1.771681        -0.606708
 H         4.401939        -1.725721        -2.208544
 H         5.296664        -0.260537        -1.664463
 H        -0.555056         0.379630         0.775443
 H        -0.532452         0.378358        -1.016335
 H        -0.176706        -1.190039        -0.041731
 H         2.303300         1.635193        -1.202681
 H         1.822102         2.331724         0.488792
 H         4.495232         1.424801         0.456487
 H         3.914543        -1.007372         1.631538
