19
Iteration:  1241charge 0 multiplicity 1
 C         4.631579        -1.039623        -1.517196
 C         3.533804        -0.517824        -0.576210
 O         2.338710        -0.094783        -1.306578
 C         1.509693         0.223386        -0.189297
 C         0.122521         0.647452        -0.455182
 C         2.312467         1.292862         0.625318
 C         3.654199         0.421362         0.719233
 C         2.985894        -0.971312         0.729600
 O         1.578296        -0.855095         0.740177
 H         5.198506        -0.266950        -1.979344
 H         5.275341        -1.677300        -0.898784
 H         4.298473        -1.592381        -2.376194
 H        -0.284618         1.153795         0.441607
 H         0.139093         1.464296        -1.249986
 H        -0.547252        -0.092829        -0.854675
 H         2.247785         2.414494         0.234282
 H         1.821167         1.377744         1.691620
 H         4.502130         0.736064         1.270320
 H         3.357789        -1.750355         1.414444
