19
Iteration:  4720
 C         4.614757        -1.031669        -1.393947
 C         3.481619        -0.493290        -0.716320
 O         2.189456        -0.593572        -1.205522
 C         1.446074         0.229418        -0.076017
 C        -0.065684         0.162270        -0.250813
 C         2.264739         1.467128         0.081863
 C         3.582644         0.701235         0.255935
 C         3.262979        -0.563861         0.947140
 O         1.805286        -0.610945         1.086114
 H         5.587076        -0.959118        -0.867391
 H         4.618891        -2.190301        -1.583580
 H         4.762399        -0.533572        -2.320460
 H        -0.432549         0.679153         0.614868
 H        -0.239044         0.682899        -1.175546
 H        -0.320770        -0.882203        -0.371480
 H         2.376860         2.137431        -0.763316
 H         1.936844         1.937723         1.061608
 H         4.543739         1.105346         0.246707
 H         3.883724        -1.113117         1.576711
