19
Iteration:  1880charge 0 multiplicity 1
 C         4.588460        -1.047190        -1.400070
 C         3.452431        -0.454549        -0.612018
 O         2.307951        -0.074647        -1.287155
 C         1.484258         0.266824        -0.052536
 C         0.121396         0.735482        -0.525221
 C         2.380438         1.295045         0.592828
 C         3.549965         0.381730         0.660491
 C         3.090313        -1.047870         0.704059
 O         1.652409        -0.919269         0.771001
 H         4.350358        -1.164099        -2.489118
 H         5.472893        -0.273362        -1.413128
 H         4.958874        -2.052295        -1.082895
 H        -0.537173         0.948844         0.349279
 H         0.205680         1.649096        -1.079265
 H        -0.444468        -0.035551        -1.156990
 H         2.604529         2.088938        -0.152390
 H         1.816221         1.567923         1.454646
 H         4.434090         0.855989         1.062563
 H         3.447060        -1.991771         1.030411
