19
Iteration:  4035charge 0 multiplicity 1
 C         4.605579        -1.097267        -1.398549
 C         3.521562        -0.526759        -0.596391
 O         2.198136        -0.368292        -1.219019
 C         1.472332         0.201013        -0.110153
 C        -0.064941         0.183055        -0.279873
 C         2.289949         1.484362         0.145535
 C         3.576900         0.690768         0.329207
 C         3.171927        -0.711131         0.871655
 O         1.839648        -0.644372         1.012264
 H         4.302669        -1.811596        -2.214419
 H         5.212600        -0.285046        -1.879533
 H         5.387868        -1.496419        -0.727670
 H        -0.586913         0.646532         0.614360
 H        -0.284031         0.734747        -1.201117
 H        -0.335579        -0.875790        -0.469116
 H         2.257281         2.115527        -0.750419
 H         1.861997         2.041187         0.997499
 H         4.645017         1.046818         0.467418
 H         3.737743        -1.351547         1.614038
