19
Iteration:   975
 C         4.551365        -0.972586        -1.479485
 C         3.478563        -0.489125        -0.583013
 O         2.254431        -0.283054        -1.168919
 C         1.504370         0.224327        -0.139670
 C         0.101599         0.599190        -0.517231
 C         2.302003         1.349513         0.338494
 C         3.543737         0.542283         0.589075
 C         3.128349        -0.863015         0.834730
 O         1.741684        -0.953537         0.913010
 H         5.410024        -0.310525        -1.389968
 H         4.722321        -1.954534        -1.216349
 H         4.282041        -1.029449        -2.496387
 H        -0.519576         0.965150         0.294247
 H         0.083428         1.494134        -1.191826
 H        -0.328024        -0.218284        -1.049293
 H         2.550304         2.160773        -0.419136
 H         2.074916         1.914185         1.339912
 H         4.495011         0.920016         0.972069
 H         3.652526        -1.607145         1.417217
