19
Iteration:  3220
 C         4.580881        -1.176058        -1.455531
 C         3.511275        -0.457270        -0.623814
 O         2.239418        -0.393056        -1.260770
 C         1.432727         0.178151        -0.133036
 C        -0.050748         0.290832        -0.415283
 C         2.324116         1.453193         0.408215
 C         3.642705         0.736855         0.357556
 C         3.237337        -0.689637         0.836808
 O         1.771099        -0.701473         1.018322
 H         5.212368        -0.377234        -1.741962
 H         4.932562        -2.064086        -0.889568
 H         4.098273        -1.617442        -2.308075
 H        -0.717207         0.672015         0.403530
 H        -0.325619         0.937832        -1.306595
 H        -0.367520        -0.755751        -0.761233
 H         2.353135         2.405660        -0.203498
 H         2.012229         1.666223         1.524452
 H         4.544005         1.251628         0.690289
 H         3.638190        -1.389853         1.449598
