19
Iteration:   671charge 0 multiplicity 1
 C         4.587986        -0.982979        -1.418687
 C         3.479649        -0.472016        -0.587758
 O         2.172835        -0.459942        -1.199545
 C         1.451288         0.128339        -0.080088
 C         0.007207         0.302413        -0.353992
 C         2.304727         1.397398         0.216120
 C         3.608124         0.775361         0.378457
 C         3.196983        -0.709789         0.890138
 O         1.813747        -0.763805         0.966071
 H         4.402422        -2.029670        -1.771968
 H         4.771685        -0.456109        -2.376450
 H         5.523004        -1.143061        -0.853320
 H        -0.501363         0.967926         0.355922
 H         0.004908         0.939864        -1.303328
 H        -0.539986        -0.617665        -0.555274
 H         2.285732         1.954741        -0.691006
 H         1.980708         2.045656         1.005980
 H         4.543511         1.281826         0.528780
 H         3.794142        -1.386720         1.549683
