19
Iteration:  2794
 C         4.550836        -1.090314        -1.441854
 C         3.532082        -0.410936        -0.557739
 O         2.306100        -0.176273        -1.265697
 C         1.513210         0.240261        -0.169273
 C         0.100649         0.518133        -0.414821
 C         2.385756         1.327906         0.481802
 C         3.597118         0.569041         0.535072
 C         3.059206        -0.885454         0.808429
 O         1.625474        -0.894044         0.800378
 H         4.499722        -0.708943        -2.424838
 H         5.605261        -0.889367        -1.239242
 H         4.405776        -2.186451        -1.329348
 H        -0.462065         0.877021         0.438417
 H        -0.205163         1.273050        -1.190763
 H        -0.365107        -0.429953        -0.648576
 H         2.440076         2.165128        -0.129434
 H         1.902839         1.585603         1.357790
 H         4.475443         1.113583         0.965898
 H         3.615051        -1.651511         1.416723
