19
Iteration:   678
 C         4.561041        -1.015429        -1.454962
 C         3.439316        -0.504764        -0.560431
 O         2.229610        -0.450556        -1.235039
 C         1.455784         0.080431        -0.161163
 C        -0.010802         0.264208        -0.347814
 C         2.323816         1.460834         0.266125
 C         3.613703         0.704997         0.416655
 C         3.233035        -0.689416         0.875001
 O         1.804795        -0.689155         0.970738
 H         4.438571        -2.115865        -1.634410
 H         4.707872        -0.427077        -2.382524
 H         5.576929        -0.679986        -0.961651
 H        -0.453117         0.912698         0.423541
 H        -0.164076         0.863988        -1.200705
 H        -0.710963        -0.591492        -0.469490
 H         2.266023         1.993582        -0.698875
 H         1.864468         2.041487         1.154638
 H         4.626825         1.176721         0.562822
 H         3.592301        -1.308356         1.713440
