19
Iteration:  3803charge 0 multiplicity 1
 C         4.508439        -1.101059        -1.500745
 C         3.477112        -0.475799        -0.571658
 O         2.229303        -0.316166        -1.174697
 C         1.471907         0.195504        -0.075865
 C         0.039915         0.179210        -0.443084
 C         2.354465         1.454855         0.230487
 C         3.599130         0.683495         0.417110
 C         3.163870        -0.719412         0.847739
 O         1.794833        -0.696674         1.068219
 H         5.463524        -1.085450        -0.937891
 H         4.205644        -2.169812        -1.697410
 H         4.468805        -0.513109        -2.386608
 H        -0.676065         0.578907         0.293200
 H        -0.222130         0.832501        -1.382788
 H        -0.208912        -0.830983        -0.909594
 H         2.286455         2.015989        -0.699378
 H         2.072979         2.113738         1.115854
 H         4.610496         1.238237         0.664844
 H         3.919582        -1.326444         1.483638
