19
Iteration:  1496charge 0 multiplicity 1
 C         4.643797        -1.110340        -1.301217
 C         3.425330        -0.492944        -0.644902
 O         2.351132         0.057484        -1.218924
 C         1.506765         0.403152        -0.034384
 C         0.004331         0.634332        -0.486958
 C         2.609925         1.326510         0.624811
 C         3.605527         0.271785         0.689750
 C         2.963459        -1.067117         0.603314
 O         1.502655        -0.881845         0.588622
 H         5.460522        -0.800960        -0.619175
 H         4.660214        -2.103013        -1.530193
 H         4.706993        -0.542824        -2.213036
 H        -0.676556         0.713318         0.354301
 H        -0.161276         1.530885        -1.050704
 H        -0.261609        -0.185381        -1.184085
 H         2.843910         2.201765        -0.200104
 H         2.276777         1.682876         1.662810
 H         4.568546         0.379158         1.184715
 H         3.487430        -2.018176         0.942891
