19
Iteration:    85charge 0 multiplicity 1
 C         4.627147        -1.112131        -1.283592
 C         3.416039        -0.431436        -0.663954
 O         2.063906        -0.646613        -1.027628
 C         1.394937         0.051236         0.030169
 C        -0.077257         0.039558        -0.295278
 C         2.058199         1.470392        -0.025744
 C         3.564387         0.923155        -0.003799
 C         3.449532        -0.438886         0.767533
 O         2.117335        -0.584930         1.206980
 H         5.122332        -0.391781        -1.972935
 H         5.377330        -1.417849        -0.553374
 H         4.402227        -2.004415        -1.854672
 H        -0.714855         0.547807         0.444513
 H        -0.164210         0.626715        -1.264452
 H        -0.527932        -0.955249        -0.461002
 H         1.846928         1.840094        -1.010118
 H         1.625889         1.995452         0.894095
 H         4.429451         1.536748        -0.104672
 H         4.196439        -0.849615         1.401415
