19
Iteration:  1267charge 0 multiplicity 1
 C         4.511326        -0.907645        -1.471470
 C         3.462990        -0.497233        -0.533117
 O         2.358799        -0.053498        -1.253281
 C         1.492406         0.354167        -0.101309
 C         0.065606         0.536521        -0.551956
 C         2.550490         1.389188         0.575205
 C         3.645576         0.299963         0.762892
 C         2.962140        -1.110855         0.786362
 O         1.578175        -0.880721         0.664594
 H         4.612599        -0.258927        -2.443670
 H         5.414099        -0.942873        -0.852245
 H         4.302074        -1.939556        -1.910342
 H        -0.638637         0.772974         0.252635
 H         0.010372         1.319738        -1.257580
 H        -0.343037        -0.386685        -0.992101
 H         2.763016         2.051080        -0.244116
 H         2.355484         2.014000         1.408553
 H         4.641372         0.709027         1.092623
 H         3.284607        -1.913734         1.440124
