19
Iteration:   909
 C         4.588516        -1.114738        -1.380740
 C         3.486069        -0.443410        -0.602093
 O         2.285306        -0.195724        -1.345728
 C         1.466854         0.254087        -0.083890
 C        -0.018543         0.318801        -0.405805
 C         2.400857         1.388570         0.429986
 C         3.628839         0.598615         0.505062
 C         3.073123        -0.803203         0.834467
 O         1.712743        -0.797454         0.858348
 H         4.776978        -2.090828        -0.947128
 H         4.122821        -1.306060        -2.307082
 H         5.487119        -0.541146        -1.431361
 H        -0.546836         0.700498         0.435875
 H        -0.073037         1.105519        -1.188588
 H        -0.230350        -0.647748        -0.752805
 H         2.358025         2.271271        -0.234364
 H         2.057961         1.755226         1.501686
 H         4.589020         1.201708         0.682128
 H         3.663148        -1.691622         1.148644
