19
Iteration:  2211charge 0 multiplicity 1
 C         4.650366        -1.061793        -1.384912
 C         3.513238        -0.500594        -0.577270
 O         2.255962        -0.094684        -1.280643
 C         1.488868         0.274300        -0.126358
 C         0.117077         0.692297        -0.367597
 C         2.359242         1.378564         0.482927
 C         3.646643         0.493738         0.657683
 C         3.044150        -1.031391         0.762529
 O         1.557753        -0.994259         0.657110
 H         5.292727        -0.230144        -1.697811
 H         5.373471        -1.589602        -0.796282
 H         4.158070        -1.545456        -2.186506
 H        -0.417766         0.947806         0.577605
 H         0.278281         1.587778        -1.109654
 H        -0.385869        -0.120387        -0.876029
 H         2.382504         2.120167        -0.267229
 H         1.954122         1.792999         1.340569
 H         4.665815         0.669135         0.987777
 H         3.519364        -1.908243         1.308159
