19
Iteration:  2762charge 0 multiplicity 1
 C         4.641352        -1.152632        -1.409431
 C         3.521283        -0.489116        -0.615825
 O         2.301349        -0.152090        -1.306726
 C         1.465385         0.225917        -0.132049
 C        -0.014124         0.550071        -0.367898
 C         2.335375         1.320374         0.525018
 C         3.555468         0.565282         0.594096
 C         3.126085        -0.855267         0.758948
 O         1.692815        -0.827521         0.731187
 H         4.525904        -1.231763        -2.455280
 H         5.596859        -0.719011        -1.053426
 H         4.843269        -2.234770        -1.312138
 H        -0.463847         0.904815         0.630233
 H        -0.125120         1.405967        -1.158297
 H        -0.547025        -0.366315        -0.668549
 H         2.556786         2.132986        -0.067695
 H         1.822945         1.589174         1.389112
 H         4.449198         1.172375         0.971823
 H         3.546688        -1.705739         1.364831
