19
Iteration:  4709
 C         4.672490        -1.008324        -1.491070
 C         3.480621        -0.540139        -0.577156
 O         2.206853        -0.588272        -1.159599
 C         1.426713         0.087790        -0.111770
 C        -0.071645         0.175814        -0.237169
 C         2.291747         1.429359         0.061457
 C         3.641962         0.706162         0.221582
 C         3.198551        -0.568968         0.954466
 O         1.827332        -0.516326         1.058467
 H         5.499350        -0.956079        -0.763359
 H         4.397322        -1.993389        -2.023497
 H         4.835282        -0.286231        -2.250715
 H        -0.564245         0.648290         0.600287
 H        -0.369372         0.806585        -1.062922
 H        -0.626615        -0.740364        -0.342706
 H         2.223526         2.123210        -0.778862
 H         1.965128         1.957752         0.998661
 H         4.524159         1.238375         0.410972
 H         3.571275        -1.261417         1.667864
