19
Iteration:   864
 C         4.533881        -1.128755        -1.475211
 C         3.499553        -0.447892        -0.623053
 O         2.296026        -0.351930        -1.293401
 C         1.471292         0.175743        -0.131659
 C         0.039081         0.459451        -0.451879
 C         2.243088         1.381378         0.413078
 C         3.600768         0.657436         0.528000
 C         3.232793        -0.752110         0.839589
 O         1.719436        -0.785667         0.966706
 H         4.005010        -1.661988        -2.261136
 H         4.982440        -0.381192        -2.060413
 H         5.322286        -1.696745        -0.942661
 H        -0.473809         0.869498         0.423530
 H        -0.028471         1.185206        -1.275779
 H        -0.198257        -0.592468        -0.729462
 H         2.334206         2.295840        -0.197646
 H         1.741455         1.676995         1.455380
 H         4.550324         1.088292         0.843566
 H         3.755948        -1.480263         1.461861
