19
Iteration:  1740charge 0 multiplicity 1
 C         4.692550        -1.030509        -1.422828
 C         3.526860        -0.498193        -0.540849
 O         2.249263         0.033134        -1.189579
 C         1.508071         0.347567        -0.064790
 C         0.087107         0.653036        -0.436358
 C         2.504025         1.296426         0.510384
 C         3.545143         0.304770         0.713051
 C         2.967541        -1.072525         0.709918
 O         1.553655        -0.906927         0.577520
 H         4.718231        -2.049625        -1.448688
 H         4.511057        -0.599567        -2.411724
 H         5.602907        -0.713386        -1.020319
 H        -0.629545         0.716206         0.354726
 H         0.156116         1.504586        -1.001878
 H        -0.370777        -0.110721        -1.087168
 H         2.732140         2.030241        -0.432051
 H         2.244653         1.819941         1.518509
 H         4.505176         0.570412         1.202322
 H         3.382566        -1.945155         1.168240
