19
Iteration:  3948
 C         4.535871        -1.082970        -1.517825
 C         3.492462        -0.537505        -0.549789
 O         2.222764        -0.451053        -1.186995
 C         1.483741         0.205844        -0.144555
 C         0.009861         0.195523        -0.440958
 C         2.347772         1.492637         0.306182
 C         3.584189         0.696008         0.386251
 C         3.230377        -0.689895         0.908719
 O         1.742086        -0.614041         1.006839
 H         5.208071        -1.881571        -1.102448
 H         4.000487        -1.370791        -2.326188
 H         5.224955        -0.269234        -1.819853
 H        -0.604398         0.557691         0.495719
 H        -0.447744         0.759296        -1.272469
 H        -0.156729        -0.881598        -0.760586
 H         2.430930         2.329781        -0.438887
 H         1.982370         1.834775         1.323183
 H         4.575328         1.191240         0.437974
 H         3.820799        -1.335499         1.652134
