19
Iteration:  3442charge 0 multiplicity 1
 C         4.646836        -1.093868        -1.432088
 C         3.509193        -0.471165        -0.572797
 O         2.192557        -0.473827        -1.201723
 C         1.447455         0.119339        -0.080917
 C        -0.003241         0.386306        -0.260298
 C         2.229157         1.423445         0.115660
 C         3.607416         0.725535         0.362587
 C         3.241110        -0.634747         0.849148
 O         1.795930        -0.771039         0.974015
 H         5.245116        -1.772726        -0.867211
 H         4.084662        -1.799093        -2.084591
 H         5.141604        -0.258159        -1.852629
 H        -0.508408         0.802739         0.618377
 H         0.009663         1.075121        -1.105230
 H        -0.616395        -0.440473        -0.525039
 H         2.171990         2.083566        -0.817149
 H         1.986510         2.033712         0.962089
 H         4.533584         1.180447         0.668680
 H         3.686169        -1.205168         1.549639
