19
Iteration:   952
 C         4.603077        -1.004704        -1.436868
 C         3.501394        -0.496995        -0.564207
 O         2.248226        -0.223510        -1.301933
 C         1.495816         0.198941        -0.112182
 C         0.013557         0.391812        -0.428346
 C         2.432303         1.395732         0.393913
 C         3.673814         0.569613         0.526692
 C         3.069902        -0.910488         0.871359
 O         1.617925        -0.792190         0.864580
 H         5.536460        -0.660747        -1.005091
 H         4.514366        -1.960131        -1.710530
 H         4.518878        -0.416264        -2.350245
 H        -0.625036         0.691151         0.401504
 H        -0.126363         1.272456        -1.151590
 H        -0.332448        -0.502436        -0.922372
 H         2.645032         2.143505        -0.397617
 H         2.228772         2.021767         1.382354
 H         4.699973         0.955959         0.870813
 H         3.282892        -1.777834         1.551256
