19
Iteration:  2453charge 0 multiplicity 1
 C         4.625446        -1.105710        -1.425603
 C         3.505164        -0.467664        -0.641663
 O         2.262346        -0.135788        -1.279940
 C         1.456641         0.235870        -0.043648
 C         0.019197         0.574474        -0.492808
 C         2.332312         1.343495         0.581610
 C         3.665106         0.528353         0.523507
 C         3.127005        -0.866658         0.805802
 O         1.672628        -0.883859         0.786593
 H         4.369332        -1.551995        -2.361864
 H         5.379558        -0.456634        -1.386121
 H         4.991708        -1.978517        -0.870307
 H        -0.607745         0.942299         0.377310
 H        -0.003772         1.208921        -1.387730
 H        -0.561386        -0.281692        -1.021621
 H         2.246569         2.176362        -0.016246
 H         2.008371         1.522393         1.567358
 H         4.665745         0.867167         0.693854
 H         3.464629        -1.788960         1.285430
