19
Iteration:  3755charge 0 multiplicity 1
 C         4.654949        -1.047464        -1.404068
 C         3.483036        -0.469994        -0.608298
 O         2.192672        -0.474833        -1.205698
 C         1.450941         0.148477        -0.075654
 C         0.011286         0.373058        -0.347327
 C         2.222181         1.431051         0.157498
 C         3.618887         0.702358         0.298616
 C         3.218698        -0.721164         0.874379
 O         1.812900        -0.745280         1.039694
 H         5.075424        -1.818965        -0.722030
 H         4.199558        -1.609037        -2.305087
 H         5.251318        -0.147843        -1.732296
 H        -0.356109         0.882576         0.542878
 H        -0.235094         1.066716        -1.083159
 H        -0.553274        -0.486537        -0.593854
 H         2.162242         2.191187        -0.636611
 H         1.837119         1.857301         1.023170
 H         4.504798         1.120608         0.581744
 H         3.791178        -1.289902         1.519298
