19
Iteration:  1233charge 0 multiplicity 1
 C         4.640213        -1.056903        -1.500390
 C         3.510726        -0.489927        -0.638284
 O         2.354017        -0.136950        -1.354642
 C         1.514047         0.256567        -0.140473
 C         0.041821         0.692387        -0.480935
 C         2.276799         1.255854         0.688478
 C         3.584944         0.472316         0.711123
 C         3.049844        -1.004831         0.757390
 O         1.638577        -0.843365         0.738045
 H         5.545702        -0.349018        -1.730644
 H         5.098621        -1.838194        -0.945950
 H         4.308433        -1.665455        -2.400220
 H        -0.241466         1.240728         0.403836
 H         0.221959         1.508793        -1.198918
 H        -0.688852         0.054393        -0.877437
 H         2.294537         2.262946         0.203932
 H         1.877326         1.231298         1.707264
 H         4.526049         0.811957         1.163018
 H         3.436364        -1.831839         1.442535
