19
Iteration:  3310
 C         4.607174        -1.075890        -1.374932
 C         3.468524        -0.596636        -0.670755
 O         2.232132        -0.451652        -1.241202
 C         1.457490         0.125423        -0.132809
 C        -0.033456         0.347241        -0.301906
 C         2.285732         1.415153         0.323824
 C         3.634136         0.723128         0.297237
 C         3.193934        -0.653885         0.816239
 O         1.768411        -0.659157         0.967959
 H         5.545190        -0.520914        -1.048311
 H         4.782849        -2.255889        -1.389880
 H         4.599817        -0.762950        -2.426626
 H        -0.464413         0.977704         0.536051
 H        -0.367863         1.133486        -0.948630
 H        -0.362458        -0.696674        -0.490130
 H         2.229140         2.392243        -0.302919
 H         1.893558         1.607930         1.366733
 H         4.664323         1.039516         0.588991
 H         3.790301        -1.312973         1.675188
