19
Iteration:  1419
 C         4.548831        -0.911364        -1.535707
 C         3.448881        -0.541739        -0.585455
 O         2.345884        -0.001846        -1.234209
 C         1.519923         0.315739        -0.098871
 C         0.205233         0.689022        -0.618671
 C         2.445178         1.307095         0.600146
 C         3.663902         0.289125         0.784232
 C         2.962102        -1.038939         0.741537
 O         1.501126        -0.960717         0.783740
 H         4.666085        -1.997364        -1.329242
 H         4.224605        -0.891436        -2.484746
 H         5.379923        -0.285688        -1.322507
 H        -0.523760         1.145621         0.042902
 H         0.323104         1.358581        -1.409031
 H        -0.238773        -0.245228        -1.078476
 H         2.721082         2.169203        -0.214748
 H         2.109848         1.599492         1.646562
 H         4.591112         0.397169         1.290759
 H         3.343254        -1.909648         1.296127
