19
Iteration:  2086
 C         4.631469        -1.019855        -1.454983
 C         3.500672        -0.527385        -0.569591
 O         2.293194        -0.119455        -1.298313
 C         1.520865         0.330118        -0.182991
 C         0.091206         0.596122        -0.468290
 C         2.468586         1.269152         0.609592
 C         3.631901         0.349884         0.590963
 C         2.971419        -0.997659         0.864484
 O         1.570568        -0.783154         0.660887
 H         4.144895        -1.299945        -2.366133
 H         5.309716        -0.218158        -1.568134
 H         5.124681        -1.877018        -0.998476
 H        -0.334892         0.893419         0.542660
 H         0.018946         1.610076        -1.016890
 H        -0.552758        -0.262436        -0.954563
 H         2.650172         2.337967         0.359560
 H         1.934415         1.456697         1.574115
 H         4.474363         0.828688         1.087150
 H         3.298070        -1.786611         1.530819
