19
Iteration:  4620
 C         4.529084        -1.271055        -1.314686
 C         3.515377        -0.467764        -0.698765
 O         2.165149        -0.424239        -1.201734
 C         1.457977         0.135618        -0.077703
 C        -0.015255         0.010627        -0.301375
 C         2.210988         1.494929         0.218322
 C         3.651462         0.886684         0.259931
 C         3.277620        -0.494868         0.835154
 O         1.834591        -0.584991         1.016897
 H         4.962689        -2.189640        -0.879327
 H         4.070757        -1.537509        -2.378546
 H         5.398795        -0.753924        -1.717646
 H        -0.558068         0.508274         0.519089
 H        -0.222665         0.457040        -1.284858
 H        -0.171485        -1.029475        -0.388147
 H         2.215644         2.249562        -0.580808
 H         1.907745         1.749194         1.274554
 H         4.636664         1.422178         0.398169
 H         3.919626        -1.001468         1.623897
