19
Iteration:  3016
 C         4.649893        -0.986587        -1.428581
 C         3.529665        -0.555967        -0.559792
 O         2.128063        -0.305751        -1.274614
 C         1.462365         0.225394        -0.121455
 C         0.034121         0.507363        -0.416507
 C         2.339687         1.311878         0.402085
 C         3.645631         0.553021         0.447618
 C         3.131088        -0.783096         0.826446
 O         1.727891        -0.763093         0.931537
 H         5.103580        -2.012402        -1.243078
 H         4.296342        -1.084114        -2.521294
 H         5.547808        -0.376174        -1.284953
 H        -0.603066         0.677652         0.496985
 H        -0.157847         1.094915        -1.311329
 H        -0.423254        -0.458220        -0.875660
 H         2.420623         2.148174        -0.256778
 H         2.131728         1.627121         1.365932
 H         4.513170         1.216765         0.769576
 H         3.644470        -1.749098         1.230760
