19
Iteration:  1672charge 0 multiplicity 1
 C         4.624401        -1.076730        -1.397056
 C         3.502485        -0.422821        -0.640156
 O         2.268248        -0.052567        -1.254555
 C         1.412001         0.231000        -0.004695
 C         0.136515         0.743722        -0.606671
 C         2.477064         1.351319         0.710086
 C         3.543173         0.417669         0.660788
 C         2.997890        -1.039531         0.680870
 O         1.609238        -0.996420         0.684217
 H         4.866981        -2.127567        -1.140319
 H         4.099224        -1.079626        -2.321021
 H         5.557446        -0.508084        -1.499671
 H        -0.675778         1.032031         0.043486
 H         0.661074         1.577141        -1.099859
 H        -0.186795         0.076510        -1.356316
 H         2.678560         2.345939         0.106602
 H         2.270951         1.600598         1.773257
 H         4.399195         0.487981         1.271916
 H         3.639682        -1.832619         1.180504
