19
Iteration:  1435
 C         4.536435        -0.972996        -1.492349
 C         3.530631        -0.441527        -0.514106
 O         2.298316        -0.041700        -1.194815
 C         1.497610         0.234052        -0.069224
 C         0.156750         0.792791        -0.644334
 C         2.479165         1.287668         0.612711
 C         3.554786         0.340326         0.692443
 C         2.971963        -1.098843         0.861608
 O         1.588212        -1.002968         0.646825
 H         5.064080        -1.914591        -1.369952
 H         3.968598        -1.029019        -2.577278
 H         5.470758        -0.330758        -1.668362
 H        -0.451580         1.210217         0.184970
 H         0.565929         1.656845        -1.295470
 H        -0.536968         0.099412        -1.056626
 H         2.581286         1.987427        -0.102275
 H         2.179768         1.839470         1.455731
 H         4.552755         0.672861         1.088131
 H         3.369470        -1.935523         1.425643
