19
Iteration:   715charge 0 multiplicity 1
 C         4.612088        -1.110242        -1.504835
 C         3.521425        -0.500497        -0.632128
 O         2.186650        -0.307983        -1.178351
 C         1.486761         0.209916        -0.071368
 C         0.013399         0.137048        -0.390140
 C         2.350362         1.511177         0.291407
 C         3.662202         0.686510         0.419922
 C         3.110331        -0.731480         0.862657
 O         1.702106        -0.670114         0.969466
 H         5.190990        -1.924789        -1.029116
 H         4.111053        -1.466447        -2.450456
 H         5.335341        -0.310250        -1.589012
 H        -0.463197         0.466624         0.532660
 H        -0.286160         0.698134        -1.336419
 H        -0.110413        -0.918141        -0.481154
 H         2.388594         2.100296        -0.583557
 H         2.050916         2.119248         1.079459
 H         4.624235         1.086175         0.573706
 H         3.539099        -1.377629         1.600931
