19
Iteration:  4751charge 0 multiplicity 1
 C         4.544529        -1.263535        -1.313490
 C         3.475618        -0.388329        -0.631121
 O         2.220725        -0.358121        -1.184374
 C         1.443777         0.142937        -0.017647
 C        -0.074380         0.083921        -0.312537
 C         2.192601         1.432898         0.126303
 C         3.625914         0.824202         0.222249
 C         3.331769        -0.542931         0.830022
 O         1.880817        -0.688962         1.023000
 H         5.555204        -0.815143        -1.159988
 H         4.633010        -2.394986        -0.971047
 H         4.395833        -1.259357        -2.370272
 H        -0.609354         0.745698         0.386665
 H        -0.059969         0.685870        -1.228478
 H        -0.543898        -0.862645        -0.297441
 H         1.970656         2.297940        -0.665697
 H         1.833541         2.086378         1.058452
 H         4.507872         1.348080         0.349477
 H         3.902643        -1.297050         1.316008
