19
Iteration:  1607
 C         4.676902        -0.969670        -1.450717
 C         3.490674        -0.556345        -0.568758
 O         2.358205        -0.005620        -1.279259
 C         1.522697         0.399147        -0.135787
 C         0.065815         0.662520        -0.500662
 C         2.534961         1.254089         0.668024
 C         3.620166         0.271083         0.712312
 C         2.887314        -1.062166         0.756785
 O         1.469159        -0.855748         0.638591
 H         5.600525        -1.002741        -0.939588
 H         4.569159        -1.951131        -1.802096
 H         4.788533        -0.281742        -2.261204
 H        -0.450575         0.953676         0.404150
 H        -0.148660         1.377274        -1.314901
 H        -0.284046        -0.266735        -0.833543
 H         2.969250         2.124723        -0.008620
 H         2.172704         1.592816         1.673852
 H         4.538252         0.579333         1.206682
 H         3.099782        -2.076929         1.020400
