19
Iteration:  2965
 C         4.485643        -1.051975        -1.499549
 C         3.499725        -0.488523        -0.515962
 O         2.214837        -0.152019        -1.206573
 C         1.508331         0.277757        -0.145996
 C         0.057287         0.375557        -0.494081
 C         2.365882         1.428037         0.353464
 C         3.659501         0.547725         0.595265
 C         3.119351        -0.900387         0.859416
 O         1.740172        -0.855017         0.900902
 H         5.348327        -1.615055        -1.051657
 H         4.068336        -1.818673        -2.171746
 H         4.877452        -0.217944        -2.204786
 H        -0.460437         0.812273         0.348480
 H        -0.061985         0.918058        -1.443542
 H        -0.500444        -0.465982        -0.896300
 H         2.527717         2.130129        -0.560040
 H         1.835408         1.877149         1.292000
 H         4.695177         1.008936         0.865860
 H         3.724312        -1.526622         1.565451
