19
Iteration:  2059
 C         4.692392        -1.039142        -1.323530
 C         3.433678        -0.516474        -0.645717
 O         2.261799        -0.017112        -1.338903
 C         1.491925         0.369575        -0.080059
 C         0.053459         0.559809        -0.451921
 C         2.541710         1.355535         0.576838
 C         3.642801         0.324703         0.630835
 C         2.920421        -1.103981         0.636044
 O         1.580116        -0.820568         0.786518
 H         4.483579        -1.885545        -2.043195
 H         5.212236        -0.124003        -1.792580
 H         5.405836        -1.292601        -0.502188
 H        -0.565635         0.810334         0.367881
 H         0.052477         1.402507        -1.108612
 H        -0.387882        -0.253548        -0.888940
 H         2.743730         2.139765        -0.189560
 H         2.075917         1.877876         1.447144
 H         4.513424         0.646107         1.237661
 H         3.354146        -2.068857         0.869037
