19
Iteration:   323charge 0 multiplicity 1
 C         4.517540        -1.160976        -1.434812
 C         3.579155        -0.351370        -0.557019
 O         2.135794        -0.641605        -1.080130
 C         1.482598         0.072045        -0.080611
 C        -0.098359         0.123599        -0.399640
 C         2.155188         1.447501         0.029746
 C         3.543302         0.916351         0.211040
 C         3.377758        -0.459076         0.884371
 O         1.958778        -0.664580         1.145313
 H         5.346926        -0.610469        -1.969277
 H         5.024730        -1.935099        -0.817273
 H         3.927217        -1.647445        -2.223110
 H        -0.407104         0.828735         0.380145
 H        -0.137649         0.608518        -1.352812
 H        -0.563667        -0.892491        -0.397892
 H         2.044836         1.960642        -0.919192
 H         1.826828         2.083058         0.954301
 H         4.403065         1.560885         0.447034
 H         4.024177        -0.870578         1.706942
