19
Iteration:   157
 C         4.547465        -1.112119        -1.443353
 C         3.485369        -0.471519        -0.605186
 O         2.143375        -0.605075        -1.081296
 C         1.466090         0.135353        -0.098579
 C        -0.075971        -0.222284        -0.249302
 C         2.272305         1.545892        -0.039542
 C         3.597050         0.846882         0.127300
 C         3.278891        -0.353758         0.884006
 O         1.917638        -0.460711         1.209522
 H         4.076372        -1.526940        -2.336006
 H         5.220989        -0.336964        -1.908514
 H         5.211379        -1.888461        -0.984503
 H        -0.752365         0.205400         0.480835
 H        -0.414097         0.131328        -1.258048
 H        -0.239956        -1.288282        -0.221861
 H         2.192364         2.191621        -0.937357
 H         2.015320         1.948628         0.933053
 H         4.621051         1.156389         0.261530
 H         3.923983        -0.705826         1.705304
