19
Iteration:  1813
 C         4.530825        -1.001676        -1.464267
 C         3.505364        -0.408167        -0.569706
 O         2.378103         0.051617        -1.213983
 C         1.474959         0.242013        -0.122111
 C         0.119393         0.596426        -0.539906
 C         2.444615         1.312757         0.528033
 C         3.617720         0.337634         0.710642
 C         2.988669        -1.062777         0.756541
 O         1.561264        -0.923418         0.756188
 H         4.012522        -1.274222        -2.486860
 H         5.280422        -0.192205        -1.729508
 H         4.947747        -1.985340        -1.062690
 H        -0.464215         0.986755         0.336664
 H         0.173985         1.367526        -1.357227
 H        -0.485124        -0.249230        -0.982415
 H         2.892724         1.930435        -0.220268
 H         2.241532         1.747076         1.459992
 H         4.472851         0.672539         1.341751
 H         3.398629        -1.998348         1.111286
