19
Iteration:  2979
 C         4.512353        -1.028235        -1.542466
 C         3.553267        -0.473731        -0.528248
 O         2.274425        -0.285515        -1.218635
 C         1.472249         0.180427        -0.071747
 C         0.044241         0.442238        -0.498429
 C         2.391602         1.360024         0.361394
 C         3.632505         0.619227         0.553931
 C         3.117948        -0.836700         0.894049
 O         1.675946        -0.816941         0.877846
 H         5.222853        -1.786318        -1.218098
 H         3.779792        -1.379521        -2.386542
 H         5.052452        -0.106575        -2.030152
 H        -0.552101         0.898413         0.269053
 H         0.047501         1.213516        -1.278460
 H        -0.240580        -0.558592        -0.634638
 H         2.425981         2.159041        -0.405367
 H         2.093796         1.888199         1.326656
 H         4.505046         1.028386         1.004710
 H         3.453793        -1.634037         1.464184
