19
Iteration:  1026
 C         4.573482        -1.016860        -1.420857
 C         3.453925        -0.513475        -0.544938
 O         2.243547        -0.133301        -1.305838
 C         1.539500         0.318434        -0.125925
 C         0.079000         0.415074        -0.499848
 C         2.409008         1.423317         0.493537
 C         3.641525         0.532585         0.569404
 C         3.044742        -0.964106         0.798132
 O         1.644482        -0.872498         0.840505
 H         4.646634        -0.382960        -2.358623
 H         5.497108        -1.122894        -0.818795
 H         4.340163        -2.120131        -1.684291
 H        -0.508104         0.858682         0.315991
 H        -0.166722         1.168832        -1.319320
 H        -0.231363        -0.594229        -0.778901
 H         2.496381         2.241940        -0.155111
 H         2.130342         1.785550         1.458339
 H         4.728835         0.835309         0.824137
 H         3.642078        -1.668226         1.401077
