19
Iteration:  4203charge 0 multiplicity 1
 C         4.521153        -1.042094        -1.439983
 C         3.509277        -0.438735        -0.597100
 O         2.199836        -0.489164        -1.130248
 C         1.469896         0.115007        -0.065978
 C        -0.003313         0.255659        -0.352088
 C         2.265297         1.403762         0.056761
 C         3.595530         0.759909         0.308247
 C         3.207326        -0.601966         0.903485
 O         1.879066        -0.731798         1.095796
 H         5.399814        -0.382711        -1.668958
 H         4.849252        -1.973928        -1.033288
 H         4.069800        -1.345207        -2.441122
 H        -0.397291         0.817425         0.541389
 H        -0.194121         0.926878        -1.263782
 H        -0.557569        -0.706508        -0.643393
 H         2.173661         1.845219        -1.019138
 H         1.850581         2.211560         0.713183
 H         4.625454         1.116564         0.565052
 H         3.823374        -1.149399         1.730695
