19
Iteration:  2828charge 0 multiplicity 1
 C         4.620466        -0.999815        -1.510395
 C         3.473890        -0.488920        -0.628237
 O         2.215160        -0.199302        -1.222308
 C         1.510942         0.327623        -0.083769
 C         0.016372         0.447226        -0.587663
 C         2.462257         1.402507         0.481670
 C         3.610663         0.495830         0.547231
 C         3.060630        -0.961520         0.800521
 O         1.656643        -0.820928         0.997265
 H         4.775128        -0.220808        -2.216598
 H         5.457062        -1.296193        -0.844482
 H         4.183638        -1.766352        -2.137697
 H        -0.714158         0.600283         0.223107
 H         0.027339         1.074407        -1.526592
 H        -0.084871        -0.561503        -0.993877
 H         2.627068         2.145136        -0.232682
 H         2.109686         1.776300         1.386823
 H         4.627660         0.824502         0.978938
 H         3.657110        -1.678014         1.414140
