19
Iteration:   910charge 0 multiplicity 1
 C         4.595251        -1.109928        -1.381378
 C         3.483054        -0.448952        -0.600684
 O         2.280350        -0.196338        -1.349247
 C         1.461958         0.255664        -0.096214
 C        -0.014029         0.314482        -0.403414
 C         2.395749         1.393567         0.438301
 C         3.633733         0.593979         0.511892
 C         3.070422        -0.808148         0.832476
 O         1.716125        -0.783932         0.858562
 H         4.798625        -2.107282        -0.951638
 H         4.122277        -1.381072        -2.349960
 H         5.476869        -0.511053        -1.442618
 H        -0.533733         0.671392         0.453881
 H        -0.064592         1.086981        -1.187216
 H        -0.230767        -0.641707        -0.736882
 H         2.370209         2.284766        -0.229438
 H         2.069598         1.743345         1.495212
 H         4.580892         1.203437         0.694056
 H         3.635420        -1.700870         1.166471
