19
Iteration:  2386charge 0 multiplicity 1
 C         4.590554        -0.976133        -1.547958
 C         3.574126        -0.518324        -0.569649
 O         2.342921        -0.211149        -1.218244
 C         1.518156         0.291584        -0.187931
 C         0.043532         0.520120        -0.451415
 C         2.428918         1.402443         0.491571
 C         3.645860         0.435057         0.641843
 C         2.925019        -0.969827         0.830930
 O         1.565764        -0.793996         0.756003
 H         4.667208        -2.029215        -1.666762
 H         4.330803        -0.418897        -2.369048
 H         5.540880        -0.648363        -1.229637
 H        -0.208631         0.617554         0.626734
 H        -0.195395         1.401027        -1.145373
 H        -0.321624        -0.465945        -0.884271
 H         2.443655         2.327566        -0.032558
 H         2.137807         1.552527         1.500477
 H         4.616587         0.412997         1.188477
 H         3.415117        -1.637993         1.587555
