19
Iteration:  3607charge 0 multiplicity 1
 C         4.721287        -1.071196        -1.422696
 C         3.423600        -0.573326        -0.635934
 O         2.151105        -0.440051        -1.196105
 C         1.459591         0.242870        -0.145501
 C        -0.014278         0.233007        -0.267941
 C         2.393457         1.450978         0.168376
 C         3.642538         0.685023         0.334941
 C         3.180930        -0.653262         0.880565
 O         1.726437        -0.647962         0.995221
 H         5.455160        -1.483783        -0.712564
 H         4.426075        -1.937834        -2.046753
 H         4.907229        -0.145576        -1.916797
 H        -0.555469         0.467438         0.664617
 H        -0.447958         0.884327        -1.093977
 H        -0.410859        -0.799707        -0.383837
 H         2.419486         2.229097        -0.667591
 H         1.955010         1.934993         1.106407
 H         4.538530         1.145037         0.548511
 H         3.668810        -1.406609         1.451154
