19
Iteration:  3176charge 0 multiplicity 1
 C         4.651733        -1.027044        -1.422255
 C         3.499966        -0.461320        -0.577219
 O         2.220909        -0.351228        -1.285744
 C         1.444318         0.207424        -0.111388
 C        -0.071764         0.321510        -0.291027
 C         2.372260         1.428957         0.210396
 C         3.645996         0.644610         0.450714
 C         3.131614        -0.773007         0.832927
 O         1.747375        -0.772203         0.955256
 H         4.850872        -0.380449        -2.275946
 H         5.518861        -1.350474        -0.786448
 H         4.310121        -2.046790        -1.706433
 H        -0.379365         0.804758         0.674143
 H        -0.208357         0.982609        -1.197163
 H        -0.644958        -0.611499        -0.515297
 H         2.366016         2.096347        -0.702040
 H         1.931470         1.995539         1.152305
 H         4.648234         1.083433         0.743705
 H         3.707607        -1.446060         1.470653
