19
Iteration:  3819charge 0 multiplicity 1
 C         4.430993        -1.120274        -1.427554
 C         3.509002        -0.408007        -0.633860
 O         2.233338        -0.243806        -1.257821
 C         1.448104         0.170888        -0.004161
 C         0.028767         0.145344        -0.419032
 C         2.343311         1.479403         0.145640
 C         3.666795         0.716635         0.512259
 C         3.228422        -0.719862         0.916786
 O         1.760776        -0.757263         0.993645
 H         5.518591        -1.107252        -1.296554
 H         4.471156        -2.210936        -1.398959
 H         4.176983        -0.814398        -2.490897
 H        -0.585056         0.491011         0.431658
 H        -0.021064         0.817992        -1.210335
 H        -0.252688        -0.866130        -0.609615
 H         2.535648         1.964810        -0.847076
 H         1.982858         2.248137         0.841229
 H         4.521857         1.068125         0.906395
 H         3.565384        -1.488675         1.503714
