19
Iteration:  2320
 C         4.664313        -1.085172        -1.387233
 C         3.483403        -0.491149        -0.608514
 O         2.239636        -0.152065        -1.354635
 C         1.517392         0.271634        -0.130288
 C         0.106742         0.573289        -0.429175
 C         2.326740         1.339905         0.612458
 C         3.616703         0.488951         0.597433
 C         3.065538        -0.942605         0.760499
 O         1.649153        -0.831176         0.704809
 H         5.253976        -1.864747        -0.904269
 H         4.051869        -1.483569        -2.179615
 H         5.398501        -0.467190        -1.846401
 H        -0.386717         0.918884         0.544324
 H         0.024830         1.551430        -1.116282
 H        -0.388109        -0.379012        -0.809214
 H         2.363389         2.354216         0.286178
 H         1.827436         1.400974         1.558180
 H         4.613544         0.726442         1.043282
 H         3.332111        -1.635603         1.501007
