19
Iteration:   115
 C         4.592933        -1.120740        -1.352816
 C         3.511224        -0.426959        -0.651974
 O         2.209630        -0.595253        -1.160888
 C         1.421384         0.017039        -0.048603
 C        -0.023189        -0.025950        -0.068719
 C         2.149906         1.478030        -0.129749
 C         3.539239         0.920889         0.108756
 C         3.303340        -0.388093         0.864017
 O         1.928941        -0.618186         1.116316
 H         4.469355        -0.836500        -2.454946
 H         5.629770        -0.723920        -1.042863
 H         4.494743        -2.252451        -1.203801
 H        -0.293061         0.714199         0.684633
 H        -0.471394         0.316786        -1.035021
 H        -0.446122        -0.986456         0.206373
 H         2.020596         1.893977        -1.154399
 H         1.679277         2.181110         0.620320
 H         4.421308         1.429256         0.452308
 H         4.029407        -0.527394         1.670112
