19
Iteration:  2930
 C         4.647683        -1.122050        -1.403928
 C         3.570256        -0.465858        -0.605933
 O         2.158459        -0.191575        -1.268139
 C         1.475787         0.303848        -0.156448
 C        -0.007555         0.374565        -0.425991
 C         2.342447         1.357696         0.504153
 C         3.724716         0.548323         0.469821
 C         3.066603        -0.849391         0.736001
 O         1.666390        -0.773972         0.852393
 H         5.650167        -0.767945        -0.959842
 H         4.533329        -2.212191        -1.305627
 H         4.706943        -0.765042        -2.429383
 H        -0.585076         0.821508         0.439115
 H        -0.009520         1.238336        -1.055481
 H        -0.297932        -0.716704        -0.570952
 H         2.348608         2.394661         0.066605
 H         2.003370         1.556491         1.541666
 H         4.689868         0.927527         0.734546
 H         3.600022        -1.543680         1.445980
