19
Iteration:  4955
 C         4.496143        -1.193450        -1.400363
 C         3.514930        -0.422769        -0.558734
 O         2.168511        -0.435902        -1.173789
 C         1.459931         0.122707        -0.087087
 C        -0.063557         0.064579        -0.387178
 C         2.263017         1.475708         0.113758
 C         3.665596         0.893442         0.231386
 C         3.304128        -0.557286         0.932390
 O         1.884871        -0.661678         1.093531
 H         5.534639        -1.119016        -0.972628
 H         4.266739        -2.299472        -1.232779
 H         4.365680        -0.918291        -2.545817
 H        -0.817472         0.563305         0.315243
 H        -0.364649         0.364848        -1.483603
 H        -0.353429        -1.022781        -0.291573
 H         2.176690         2.109449        -0.765867
 H         1.845846         2.018801         0.910881
 H         4.599851         1.548038         0.236712
 H         3.900190        -1.025885         1.669809
