19
Iteration:   982charge 0 multiplicity 1
 C         4.605319        -1.023291        -1.522075
 C         3.542102        -0.462984        -0.620098
 O         2.225023        -0.337977        -1.209524
 C         1.499804         0.218173        -0.143417
 C         0.078408         0.647969        -0.540464
 C         2.297966         1.384438         0.419579
 C         3.523597         0.599099         0.581043
 C         3.125515        -0.906342         0.847550
 O         1.731471        -0.948664         0.950304
 H         5.388309        -0.227827        -1.531365
 H         4.965939        -2.003037        -1.072042
 H         4.096179        -1.067587        -2.556835
 H        -0.509068         0.987544         0.343613
 H         0.196500         1.547270        -1.237931
 H        -0.327684        -0.266017        -1.056778
 H         2.515785         2.180728        -0.237322
 H         1.929885         1.793838         1.373558
 H         4.433433         1.112462         1.071572
 H         3.615200        -1.720723         1.464227
