19
Iteration:   960
 C         4.558626        -0.973394        -1.423170
 C         3.487293        -0.497847        -0.547056
 O         2.228370        -0.206813        -1.270298
 C         1.487029         0.153287        -0.076421
 C         0.032672         0.459424        -0.489315
 C         2.435700         1.392328         0.373388
 C         3.675774         0.555448         0.547555
 C         3.099668        -0.909255         0.881088
 O         1.651239        -0.834932         0.840039
 H         5.523181        -0.529955        -1.091566
 H         4.624468        -2.095041        -1.462297
 H         4.205265        -0.448405        -2.387876
 H        -0.476969         0.748654         0.462093
 H         0.143756         1.376812        -1.132906
 H        -0.450860        -0.438840        -1.003560
 H         2.455241         1.978025        -0.519242
 H         1.936233         1.962950         1.146788
 H         4.726676         0.854680         0.811585
 H         3.598048        -1.657947         1.545693
