19
Iteration:  4610charge 0 multiplicity 1
 C         4.548970        -1.272231        -1.339533
 C         3.484708        -0.387568        -0.608331
 O         2.215231        -0.432546        -1.223352
 C         1.450437         0.202555        -0.072394
 C        -0.036249         0.051057        -0.269724
 C         2.285666         1.473810         0.137063
 C         3.591817         0.845672         0.253005
 C         3.262451        -0.477964         0.799603
 O         1.890563        -0.667187         1.031685
 H         4.668950        -2.120013        -0.636449
 H         3.902637        -1.573206        -2.276848
 H         5.416008        -0.690389        -1.511110
 H        -0.826034         0.343923         0.434087
 H        -0.415036         0.387634        -1.251296
 H        -0.156813        -1.005088        -0.227655
 H         2.028992         2.180628        -0.576511
 H         1.945798         1.994471         1.052353
 H         4.501955         1.388488         0.607825
 H         3.879939        -1.277700         1.332889
