19
Iteration:   862
 C         4.532321        -1.106683        -1.480635
 C         3.499121        -0.453171        -0.623396
 O         2.301582        -0.357668        -1.291196
 C         1.466079         0.170288        -0.143850
 C         0.030454         0.453529        -0.457303
 C         2.246204         1.377955         0.420185
 C         3.630829         0.652031         0.514752
 C         3.226184        -0.766092         0.838974
 O         1.708408        -0.768626         0.972986
 H         3.974892        -1.615035        -2.233303
 H         5.030692        -0.336227        -1.972133
 H         5.247138        -1.750616        -0.918838
 H        -0.450277         0.880558         0.467586
 H        -0.058997         1.180704        -1.261731
 H        -0.169017        -0.646384        -0.715777
 H         2.301032         2.313231        -0.165064
 H         1.782780         1.667167         1.411621
 H         4.531797         1.059984         0.837984
 H         3.760024        -1.422342         1.491339
