19
Iteration:  2446charge 0 multiplicity 1
 C         4.587881        -1.093407        -1.396007
 C         3.457767        -0.438810        -0.586446
 O         2.268029        -0.175295        -1.259983
 C         1.427577         0.232064         0.008991
 C         0.058812         0.575156        -0.537378
 C         2.364261         1.358016         0.558521
 C         3.662956         0.550587         0.521454
 C         3.138489        -0.934087         0.742274
 O         1.659132        -0.885727         0.799378
 H         4.278686        -1.380198        -2.439149
 H         5.497568        -0.384920        -1.708040
 H         5.107865        -1.907110        -0.835288
 H        -0.683627         0.958748         0.175526
 H         0.159805         1.316590        -1.354428
 H        -0.422334        -0.332367        -0.932632
 H         2.197406         2.227495        -0.167435
 H         2.133810         1.567561         1.655348
 H         4.642814         0.980793         0.785134
 H         3.559817        -1.818193         1.131108
