19
Iteration:   844charge 0 multiplicity 1
 C         4.589274        -0.999173        -1.470388
 C         3.516407        -0.501638        -0.548037
 O         2.203025        -0.305734        -1.183525
 C         1.498939         0.218404        -0.154035
 C        -0.013615         0.281796        -0.449509
 C         2.417841         1.390113         0.363822
 C         3.637805         0.609610         0.385233
 C         3.066092        -0.806984         0.884430
 O         1.725095        -0.706026         0.927504
 H         4.228342        -1.111277        -2.555052
 H         5.500024        -0.345011        -1.642817
 H         5.052639        -1.941963        -1.116462
 H        -0.464935         0.755856         0.394770
 H        -0.136339         1.072901        -1.216115
 H        -0.548414        -0.615971        -0.717747
 H         2.402995         2.272832        -0.276464
 H         2.124071         1.623250         1.476406
 H         4.654567         0.964456         0.694676
 H         3.464907        -1.544706         1.595070
