19
Iteration:   423charge 0 multiplicity 1
 C         4.534763        -1.142110        -1.381068
 C         3.473478        -0.419869        -0.623172
 O         2.183190        -0.466916        -1.144452
 C         1.440389         0.064971         0.020500
 C        -0.082086         0.153591        -0.402488
 C         2.189830         1.460080         0.061893
 C         3.636979         0.937033         0.219914
 C         3.372261        -0.510598         0.856154
 O         1.883138        -0.813535         1.169143
 H         4.027837        -1.965920        -2.000715
 H         5.154479        -0.609145        -2.153086
 H         5.233843        -1.731394        -0.765805
 H        -0.525127         0.510435         0.506057
 H        -0.000118         0.771822        -1.276467
 H        -0.556183        -0.770068        -0.715636
 H         2.073559         1.979516        -0.950771
 H         2.067598         2.362973         0.691684
 H         4.351610         1.710093         0.448786
 H         4.009726        -1.045143         1.491955
