19
Iteration:  4921charge 0 multiplicity 1
 C         4.519536        -1.274246        -1.401403
 C         3.495675        -0.416942        -0.638661
 O         2.110400        -0.422941        -1.246305
 C         1.489016         0.178842        -0.090859
 C         0.034325        -0.045365        -0.314746
 C         2.241647         1.479974         0.184229
 C         3.624319         0.848149         0.246373
 C         3.297039        -0.504398         0.944796
 O         1.856533        -0.535970         1.063621
 H         5.330673        -1.610816        -0.703026
 H         3.834612        -2.068904        -1.789105
 H         5.140172        -0.780898        -2.316501
 H        -0.736744         0.359685         0.434195
 H        -0.196452         0.231488        -1.435223
 H         0.064079        -1.162372        -0.344425
 H         2.220538         2.158221        -0.600103
 H         1.882412         1.821527         1.099676
 H         4.534317         1.379305         0.289691
 H         3.721449        -0.916205         1.811560
