19
Iteration:  2184charge 0 multiplicity 1
 C         4.638460        -1.055312        -1.407770
 C         3.464401        -0.483119        -0.600615
 O         2.342085        -0.056789        -1.345100
 C         1.481787         0.297011        -0.192679
 C         0.010700         0.564092        -0.383176
 C         2.475935         1.307855         0.563920
 C         3.619411         0.366655         0.732979
 C         3.053404        -1.013032         0.705253
 O         1.542895        -0.810092         0.707481
 H         4.875931        -0.382235        -2.285578
 H         5.486405        -0.930754        -0.689198
 H         4.398549        -2.121213        -1.716147
 H        -0.456940         0.760738         0.623798
 H        -0.160982         1.479548        -1.072583
 H        -0.465576        -0.385294        -0.811580
 H         2.750535         2.176324        -0.189081
 H         2.131823         1.926815         1.520585
 H         4.581894         0.597393         1.208507
 H         3.447377        -1.812407         1.262121
