19
Iteration:  1864
 C         4.643199        -0.992212        -1.494640
 C         3.528975        -0.538698        -0.575633
 O         2.263051        -0.067194        -1.277363
 C         1.491463         0.304316        -0.159688
 C         0.077066         0.622189        -0.549027
 C         2.416007         1.280766         0.702653
 C         3.723961         0.396579         0.620084
 C         2.958655        -0.997097         0.753868
 O         1.552997        -0.847508         0.773766
 H         4.210727        -1.054652        -2.501111
 H         5.473390        -0.385784        -1.488275
 H         4.891321        -2.003600        -1.167243
 H        -0.647836         0.861136         0.236419
 H         0.135149         1.485402        -1.327635
 H        -0.273355        -0.224900        -1.134756
 H         2.410726         2.273537         0.248625
 H         2.180906         1.231423         1.817124
 H         4.764097         0.504237         0.960029
 H         3.403312        -1.711440         1.513754
