19
Iteration:  4739charge 0 multiplicity 1
 C         4.595567        -1.163041        -1.325741
 C         3.481066        -0.494436        -0.627546
 O         2.095159        -0.407752        -1.163160
 C         1.454111         0.104570        -0.068955
 C         0.005847         0.127800        -0.294564
 C         2.251809         1.502620         0.124012
 C         3.626076         0.870322         0.207734
 C         3.225688        -0.603454         0.813823
 O         1.904371        -0.679569         1.046512
 H         5.522591        -0.702288        -0.936955
 H         4.556912        -2.292079        -1.085816
 H         4.572582        -1.019155        -2.407612
 H        -0.490443         0.696444         0.521637
 H        -0.230877         0.533702        -1.312970
 H        -0.407672        -0.851652        -0.419620
 H         2.144977         2.012883        -0.959642
 H         1.971000         1.995224         1.154805
 H         4.528034         1.348618         0.495945
 H         3.842085        -1.206213         1.551866
