19
Iteration:  1900
 C         4.632323        -1.033603        -1.358334
 C         3.508131        -0.383914        -0.564013
 O         2.267161        -0.107842        -1.286657
 C         1.460202         0.202873        -0.179908
 C         0.128337         0.736100        -0.363809
 C         2.399833         1.337332         0.512507
 C         3.617041         0.438197         0.704633
 C         3.022061        -0.987007         0.690475
 O         1.578619        -1.032957         0.653838
 H         4.214599        -1.401102        -2.373955
 H         5.549071        -0.381631        -1.621016
 H         4.987425        -2.030441        -0.915403
 H        -0.388956         0.965244         0.650986
 H         0.418539         1.712963        -0.862736
 H        -0.531800         0.031491        -1.070205
 H         2.633337         2.098325        -0.205376
 H         2.044315         1.903710         1.361403
 H         4.585549         0.595132         1.230724
 H         3.415185        -1.719350         1.298536
