19
Iteration:  4198
 C         4.550781        -1.065951        -1.438270
 C         3.490985        -0.440803        -0.593604
 O         2.196100        -0.490198        -1.166435
 C         1.481647         0.100068        -0.095934
 C        -0.000279         0.244625        -0.351844
 C         2.262585         1.476661         0.093947
 C         3.591842         0.712374         0.313127
 C         3.235250        -0.582118         0.932454
 O         1.874126        -0.721029         1.077069
 H         5.274226        -0.287741        -1.722073
 H         4.806557        -2.083539        -0.997997
 H         4.035234        -1.381944        -2.343034
 H        -0.363295         0.738938         0.528614
 H        -0.307834         0.865501        -1.162005
 H        -0.572392        -0.625286        -0.533840
 H         2.216965         1.795144        -0.906387
 H         1.767344         2.166475         0.765803
 H         4.547879         1.138091         0.504197
 H         3.808261        -1.040600         1.664556
