19
Iteration:    21charge 0 multiplicity 1
 C         4.447127        -1.082249        -1.476815
 C         3.464146        -0.347440        -0.644919
 O         2.145355        -0.585845        -1.136202
 C         1.504365         0.079241        -0.058967
 C         0.078698        -0.154157        -0.098817
 C         2.220249         1.445495        -0.300672
 C         3.578274         0.966489         0.266582
 C         3.314979        -0.425214         0.976460
 O         1.904667        -0.568848         1.247491
 H         5.421855        -0.641503        -1.472068
 H         4.450842        -2.082838        -1.188424
 H         4.021635        -1.046384        -2.429510
 H        -0.508391         0.207780         0.741859
 H        -0.289718         0.331442        -1.055398
 H        -0.056642        -1.233517        -0.234609
 H         2.328732         1.382243        -1.365953
 H         1.734369         2.424583         0.029713
 H         4.477551         1.571225         0.289213
 H         4.012682        -0.969957         1.645681
