19
Iteration:  2509
 C         4.621963        -1.022126        -1.407151
 C         3.547767        -0.504821        -0.574135
 O         2.225042        -0.083843        -1.287864
 C         1.491962         0.259507        -0.110943
 C        -0.039632         0.464361        -0.423521
 C         2.497735         1.398717         0.367657
 C         3.574999         0.467791         0.631232
 C         3.070721        -0.920871         0.827447
 O         1.646621        -0.904298         0.768444
 H         4.334533        -0.738205        -2.432108
 H         5.474250        -0.522318        -1.209694
 H         4.701268        -2.101371        -1.269865
 H        -0.523750         0.719836         0.564557
 H        -0.151389         1.400685        -0.987067
 H        -0.364256        -0.573079        -0.784780
 H         2.621466         2.064566        -0.417423
 H         2.328808         1.945902         1.265430
 H         4.561675         0.751135         1.045512
 H         3.562543        -1.601029         1.478955
