19
Iteration:  2751charge 0 multiplicity 1
 C         4.643176        -1.108217        -1.365738
 C         3.505739        -0.439719        -0.624856
 O         2.261368        -0.123612        -1.304598
 C         1.468334         0.287396        -0.107924
 C         0.038430         0.522307        -0.410138
 C         2.350409         1.354281         0.459542
 C         3.639242         0.519069         0.551351
 C         3.077609        -0.897973         0.760114
 O         1.648580        -0.915141         0.808052
 H         4.470925        -0.930108        -2.407956
 H         5.625396        -0.630111        -1.175696
 H         4.579338        -2.109316        -0.963063
 H        -0.486624         0.746839         0.577613
 H        -0.155496         1.337681        -1.201828
 H        -0.323639        -0.431231        -0.806729
 H         2.370231         2.168115        -0.199544
 H         2.167596         1.657157         1.435772
 H         4.649732         0.912545         0.841259
 H         3.547362        -1.699170         1.365383
