19
Iteration:  3522
 C         4.447370        -1.196112        -1.435555
 C         3.530064        -0.443422        -0.571241
 O         2.190663        -0.321037        -1.182348
 C         1.528906         0.141609        -0.120433
 C        -0.001648         0.225617        -0.458279
 C         2.318169         1.445953         0.258293
 C         3.645562         0.789510         0.379055
 C         3.216457        -0.692706         0.880391
 O         1.794306        -0.698605         1.040146
 H         5.517615        -0.868955        -1.566513
 H         4.520722        -2.289995        -1.458064
 H         4.099702        -1.064307        -2.571710
 H        -0.447825         0.732440         0.325723
 H        -0.245980         0.769698        -1.364162
 H        -0.155768        -0.787830        -0.682480
 H         2.186705         2.082087        -0.561099
 H         1.948280         1.923323         1.175903
 H         4.523910         1.167726         0.860549
 H         3.760095        -1.341996         1.616186
