19
Iteration:  3568charge 0 multiplicity 1
 C         4.585962        -1.138016        -1.399208
 C         3.487092        -0.459733        -0.589954
 O         2.170337        -0.393308        -1.205923
 C         1.472255         0.176476        -0.073446
 C        -0.020304         0.302065        -0.352126
 C         2.291211         1.398491         0.205619
 C         3.645935         0.721302         0.348298
 C         3.195670        -0.649855         0.824835
 O         1.795353        -0.744068         1.026536
 H         5.605071        -0.849264        -0.980123
 H         4.564712        -2.232243        -1.386691
 H         4.586710        -0.833914        -2.500742
 H        -0.367037         0.918893         0.431278
 H        -0.168492         0.938341        -1.192677
 H        -0.395146        -0.654607        -0.627272
 H         2.279408         2.019950        -0.617669
 H         1.983399         1.958823         1.074643
 H         4.508581         1.374953         0.509778
 H         3.738743        -1.406553         1.275269
