19
Iteration:  1978charge 0 multiplicity 1
 C         4.513798        -1.065362        -1.516969
 C         3.485298        -0.505464        -0.509784
 O         2.312966         0.038668        -1.185581
 C         1.484630         0.251854        -0.072528
 C         0.117675         0.660994        -0.663351
 C         2.509002         1.368946         0.613125
 C         3.596129         0.392397         0.716640
 C         3.033924        -1.046524         0.747790
 O         1.577485        -0.954457         0.758794
 H         4.517417        -2.140113        -1.730469
 H         4.240640        -0.596470        -2.533296
 H         5.588885        -0.880147        -1.303588
 H        -0.604258         1.040929         0.142181
 H         0.333288         1.487713        -1.377444
 H        -0.291516        -0.187001        -1.390309
 H         2.396243         2.172864        -0.090919
 H         2.182862         1.492956         1.602959
 H         4.562543         0.662315         1.075791
 H         3.619453        -1.833992         1.336553
