19
Iteration:   573charge 0 multiplicity 1
 C         4.485782        -1.062189        -1.396335
 C         3.522545        -0.427825        -0.601088
 O         2.205446        -0.348366        -1.194858
 C         1.420498         0.178136        -0.079771
 C        -0.032408         0.123461        -0.408146
 C         2.278044         1.399173         0.130871
 C         3.637846         0.736009         0.366069
 C         3.234501        -0.654302         0.854574
 O         1.878304        -0.704079         1.098651
 H         5.347038        -0.552977        -1.798704
 H         5.109323        -1.706590        -0.794491
 H         3.983299        -1.527725        -2.209922
 H        -0.650399         0.420141         0.496902
 H        -0.294807         0.828170        -1.271676
 H        -0.364144        -0.920679        -0.684784
 H         2.328221         1.911452        -0.812218
 H         1.824369         2.148703         0.829709
 H         4.639150         1.255362         0.522135
 H         3.862712        -1.275303         1.554425
