19
Iteration:  1062charge 0 multiplicity 1
 C         4.635065        -1.063697        -1.415678
 C         3.556165        -0.486278        -0.564042
 O         2.346641        -0.059213        -1.352688
 C         1.454175         0.330750        -0.164742
 C        -0.057657         0.413060        -0.367950
 C         2.423629         1.379604         0.476019
 C         3.644368         0.474646         0.629950
 C         3.051884        -0.937381         0.759398
 O         1.605293        -0.835016         0.778165
 H         4.226946        -1.255558        -2.424367
 H         5.574575        -0.592381        -1.492519
 H         4.832337        -2.079639        -1.032102
 H        -0.558335         0.660160         0.595304
 H        -0.310145         1.062878        -1.265784
 H        -0.343698        -0.613875        -0.642334
 H         2.517952         2.213004        -0.300588
 H         2.122377         1.785777         1.547451
 H         4.497158         0.751914         1.189563
 H         3.401582        -1.697276         1.448711
