19
Iteration:   512charge 0 multiplicity 1
 C         4.605311        -1.043589        -1.380415
 C         3.500383        -0.469711        -0.601354
 O         2.177471        -0.487370        -1.212848
 C         1.482524         0.089962        -0.098079
 C        -0.017281         0.178536        -0.291760
 C         2.208492         1.471304         0.063311
 C         3.616579         0.787121         0.316077
 C         3.267885        -0.583162         0.834174
 O         1.809602        -0.714715         1.135121
 H         5.425365        -1.328774        -0.675015
 H         4.031900        -1.782721        -1.976288
 H         5.006933        -0.306111        -2.123394
 H        -0.394780         0.830980         0.468716
 H        -0.094487         0.759636        -1.237601
 H        -0.510757        -0.735788        -0.355718
 H         2.221123         2.045232        -0.964161
 H         1.836676         2.002965         0.898370
 H         4.643340         1.242387         0.350589
 H         3.758840        -1.416349         1.441156
