19
Iteration:    13charge 0 multiplicity 1
 C         4.501692        -1.074821        -1.479030
 C         3.477560        -0.366631        -0.619401
 O         2.107419        -0.606941        -1.142517
 C         1.487754         0.055944        -0.011369
 C         0.095623        -0.117622        -0.147676
 C         2.178875         1.420366        -0.207496
 C         3.590206         0.982889         0.211430
 C         3.325053        -0.381669         0.935052
 O         1.892055        -0.552976         1.228045
 H         5.546856        -0.846341        -1.185546
 H         4.309345        -2.143282        -1.170142
 H         4.382539        -1.019843        -2.599270
 H        -0.382090         0.299272         0.744936
 H        -0.316275         0.302967        -1.011878
 H        -0.060643        -1.201073        -0.114927
 H         2.148937         1.524186        -1.322207
 H         1.704605         2.200651         0.304671
 H         4.543134         1.416560        -0.057727
 H         3.935890        -0.939555         1.559203
