19
Iteration:  2767
 C         4.637658        -1.192561        -1.418814
 C         3.505104        -0.492028        -0.617902
 O         2.318174        -0.174011        -1.303960
 C         1.468430         0.189545        -0.191252
 C        -0.013010         0.542754        -0.343644
 C         2.316361         1.347646         0.558949
 C         3.571285         0.562689         0.612509
 C         3.137711        -0.861065         0.776034
 O         1.709487        -0.790186         0.708670
 H         4.620766        -1.009458        -2.568234
 H         5.645310        -0.721587        -1.235593
 H         4.851915        -2.256519        -1.236698
 H        -0.526847         1.011144         0.489011
 H        -0.105018         1.381947        -0.981137
 H        -0.737517        -0.269179        -0.581342
 H         2.429486         2.319178        -0.095079
 H         1.616850         1.643784         1.436025
 H         4.386180         1.055063         1.099937
 H         3.579627        -1.645204         1.352905
