19
Iteration:  4987
 C         4.619905        -1.067282        -1.440638
 C         3.532023        -0.543030        -0.540468
 O         2.212030        -0.609862        -1.155288
 C         1.470642         0.092099        -0.135168
 C        -0.025103         0.255946        -0.266725
 C         2.191276         1.472456         0.018440
 C         3.576438         0.874177         0.254906
 C         3.238060        -0.610164         0.872994
 O         1.814898        -0.660125         1.128518
 H         5.582491        -0.531744        -1.217283
 H         4.872715        -2.145800        -1.318201
 H         4.501241        -1.022773        -2.621614
 H        -0.315508         0.878025         0.669550
 H        -0.247289         0.916308        -1.220803
 H        -0.427513        -0.785428        -0.218175
 H         2.063150         2.020863        -0.890920
 H         1.633587         2.036570         0.689631
 H         4.539372         1.524314         0.390739
 H         3.812019        -1.022267         1.691603
