19
Iteration:  4703charge 0 multiplicity 1
 C         4.652852        -0.990896        -1.505699
 C         3.514182        -0.575972        -0.510124
 O         2.168397        -0.576241        -1.150540
 C         1.463817         0.055348        -0.148410
 C        -0.088206         0.198230        -0.259417
 C         2.306314         1.406109         0.050803
 C         3.634160         0.749171         0.218687
 C         3.203364        -0.598118         0.923874
 O         1.806632        -0.515006         1.082867
 H         5.577925        -1.234803        -0.929222
 H         4.495450        -1.876224        -2.019194
 H         4.857139        -0.099731        -2.207548
 H        -0.471777         0.631453         0.708366
 H        -0.374345         0.890672        -1.079741
 H        -0.580141        -0.837745        -0.294090
 H         2.116537         2.109020        -0.800815
 H         2.012618         2.040218         0.868613
 H         4.570308         1.323237         0.518931
 H         3.642440        -1.170604         1.762556
