19
Iteration:  4250
 C         4.513832        -1.043269        -1.468447
 C         3.490165        -0.530820        -0.586181
 O         2.166646        -0.536399        -1.160322
 C         1.489697         0.147161        -0.170511
 C        -0.010996         0.149954        -0.331831
 C         2.333924         1.415305         0.123189
 C         3.635112         0.739335         0.226161
 C         3.263799        -0.576505         0.949254
 O         1.807435        -0.550415         1.101596
 H         5.492806        -0.974684        -0.923615
 H         4.444445        -2.149312        -1.692172
 H         4.535500        -0.491435        -2.368698
 H        -0.567517         0.568104         0.544471
 H        -0.374062         0.677604        -1.243979
 H        -0.352732        -0.927727        -0.609064
 H         2.169761         2.389253        -0.349532
 H         1.878104         1.593176         1.244013
 H         4.455569         1.394377         0.454280
 H         3.833165        -1.056895         1.664756
