19
Iteration:  4875charge 0 multiplicity 1
 C         4.676966        -1.110902        -1.466956
 C         3.490695        -0.451823        -0.616534
 O         2.192715        -0.609146        -1.173518
 C         1.465301         0.115860        -0.088974
 C        -0.008098         0.233253        -0.230911
 C         2.186878         1.389815         0.021696
 C         3.568571         0.783467         0.274591
 C         3.211350        -0.481566         0.944940
 O         1.839261        -0.642941         1.078872
 H         5.355578        -1.541235        -0.709880
 H         4.288950        -1.767807        -2.251687
 H         5.371270        -0.311445        -1.919065
 H        -0.373959         0.578916         0.735020
 H        -0.397149         0.931524        -0.979451
 H        -0.470809        -0.762601        -0.376467
 H         2.150916         1.789795        -0.987803
 H         1.814521         2.167393         0.744917
 H         4.413526         1.495702         0.166449
 H         3.919244        -1.042816         1.722059
