19
Iteration:  2908charge 0 multiplicity 1
 C         4.620324        -1.080002        -1.336201
 C         3.451877        -0.496914        -0.647699
 O         2.281376        -0.209216        -1.367099
 C         1.478247         0.245128        -0.088192
 C        -0.013149         0.496563        -0.397028
 C         2.364331         1.372890         0.466845
 C         3.572453         0.561443         0.501400
 C         3.126550        -0.858255         0.782519
 O         1.731436        -0.852615         0.831048
 H         5.624319        -0.565349        -1.184739
 H         4.778898        -2.156145        -1.097711
 H         4.543180        -1.131626        -2.411195
 H        -0.538160         0.824197         0.566468
 H        -0.161048         1.467769        -0.892642
 H        -0.441827        -0.546722        -0.556243
 H         2.387893         2.299905        -0.166749
 H         1.936716         1.719063         1.443702
 H         4.407517         1.048397         0.863909
 H         3.731908        -1.614945         1.297623
