19
Iteration:  2941charge 0 multiplicity 1
 C         4.618023        -1.095182        -1.425893
 C         3.491150        -0.433709        -0.638067
 O         2.232100        -0.209106        -1.302873
 C         1.468730         0.248976        -0.030377
 C         0.047638         0.371590        -0.437341
 C         2.419240         1.377252         0.491709
 C         3.649275         0.582170         0.493086
 C         3.082848        -0.865195         0.767225
 O         1.657285        -0.734626         0.872995
 H         5.622797        -1.136492        -0.929876
 H         4.398067        -2.142207        -1.667121
 H         4.658566        -0.641979        -2.424089
 H        -0.591539         0.700531         0.422098
 H        -0.142728         0.876707        -1.370176
 H        -0.380904        -0.598214        -0.839837
 H         2.412844         2.244457        -0.210001
 H         2.096820         1.564273         1.527884
 H         4.532452         0.957436         0.993756
 H         3.521783        -1.699807         1.404905
