19
Iteration:  2318
 C         4.637657        -1.068794        -1.389250
 C         3.499459        -0.508161        -0.621139
 O         2.257276        -0.152573        -1.349630
 C         1.518896         0.269578        -0.132920
 C         0.087847         0.564281        -0.433126
 C         2.328105         1.343356         0.603158
 C         3.623320         0.480334         0.614887
 C         3.066640        -0.944914         0.773520
 O         1.654459        -0.815585         0.700049
 H         5.228210        -1.773214        -0.876094
 H         3.948368        -1.503653        -2.191646
 H         5.344933        -0.477463        -1.885896
 H        -0.311560         0.893170         0.556706
 H         0.058608         1.503193        -1.127366
 H        -0.362570        -0.351682        -0.811166
 H         2.380529         2.441318         0.278368
 H         1.724920         1.397610         1.557267
 H         4.589842         0.637858         1.081737
 H         3.350606        -1.656260         1.491981
