19
Iteration:  3431charge 0 multiplicity 1
 C         4.560112        -1.084028        -1.410895
 C         3.512766        -0.468004        -0.608149
 O         2.182151        -0.398817        -1.147134
 C         1.465490         0.105679        -0.082329
 C        -0.027244         0.361566        -0.344258
 C         2.343384         1.458418         0.093448
 C         3.554685         0.749967         0.325350
 C         3.204288        -0.688264         0.894812
 O         1.829977        -0.826220         1.048608
 H         5.199985        -1.672600        -0.797592
 H         4.185853        -1.561520        -2.328284
 H         5.280596        -0.442316        -1.896200
 H        -0.433292         0.829795         0.573615
 H        -0.211427         1.074969        -1.142232
 H        -0.455250        -0.578380        -0.613145
 H         2.258755         1.958943        -0.930238
 H         1.916357         2.029917         0.882584
 H         4.460412         1.148340         0.701685
 H         3.925187        -1.169418         1.396498
