19
Iteration:   155
 C         4.563691        -1.119334        -1.455328
 C         3.489196        -0.464934        -0.604460
 O         2.138880        -0.614061        -1.082002
 C         1.465032         0.152773        -0.141609
 C        -0.092986        -0.226859        -0.247145
 C         2.267041         1.534876        -0.019766
 C         3.603624         0.845653         0.129271
 C         3.282187        -0.350369         0.898879
 O         1.914262        -0.453541         1.203817
 H         4.099956        -1.494368        -2.313809
 H         5.227773        -0.382716        -1.868076
 H         5.179099        -1.888117        -1.042777
 H        -0.702118         0.234307         0.554417
 H        -0.497598         0.096442        -1.203938
 H        -0.219111        -1.313186        -0.148490
 H         2.248668         2.225808        -0.902381
 H         1.993733         1.903375         0.918657
 H         4.659545         1.193131         0.248676
 H         3.911545        -0.698986         1.778609
