19
Iteration:  4975charge 0 multiplicity 1
 C         4.563491        -1.133387        -1.403598
 C         3.486020        -0.441401        -0.616207
 O         2.212051        -0.542359        -1.144165
 C         1.481985         0.061331        -0.055483
 C         0.051813         0.197444        -0.282649
 C         2.210245         1.456317         0.008803
 C         3.512836         0.809666         0.266104
 C         3.250267        -0.503612         0.936048
 O         1.873728        -0.667297         1.043333
 H         5.514611        -0.605434        -1.207483
 H         4.616519        -2.185855        -1.212432
 H         4.230273        -0.851318        -2.471178
 H        -0.473562         0.796419         0.516608
 H        -0.187606         0.636396        -1.312827
 H        -0.521772        -0.728884        -0.342619
 H         2.236195         1.870059        -0.963365
 H         1.912085         2.064114         0.828561
 H         4.465802         1.256513         0.603802
 H         3.842646        -1.009793         1.622493
