19
Iteration:  3238
 C         4.529134        -1.144122        -1.527426
 C         3.545268        -0.467460        -0.603029
 O         2.200978        -0.347679        -1.148342
 C         1.499916         0.209942        -0.149232
 C         0.043919         0.230209        -0.451819
 C         2.259802         1.412966         0.316115
 C         3.634763         0.661054         0.415865
 C         3.165978        -0.668617         0.915060
 O         1.789398        -0.678424         0.963083
 H         5.480250        -0.632776        -1.826846
 H         4.875247        -2.023489        -1.012276
 H         3.941047        -1.361647        -2.487268
 H        -0.444640         0.768562         0.374753
 H        -0.377445         1.093872        -1.061680
 H        -0.338796        -0.753684        -0.620164
 H         2.214531         2.280577        -0.312024
 H         1.845343         1.625091         1.294084
 H         4.667602         1.088737         0.626766
 H         3.831201        -1.225856         1.681430
