19
Iteration:  1508
 C         4.606821        -1.066844        -1.367774
 C         3.504918        -0.439591        -0.601709
 O         2.287824         0.090820        -1.263840
 C         1.478991         0.371095        -0.105484
 C         0.079811         0.644186        -0.514167
 C         2.589967         1.378458         0.634892
 C         3.595076         0.239789         0.764597
 C         2.886836        -1.093465         0.631523
 O         1.551062        -0.959168         0.623529
 H         5.555656        -0.817632        -0.905237
 H         4.503252        -2.110776        -1.235608
 H         4.816905        -0.841728        -2.381275
 H        -0.435517         0.550929         0.422545
 H        -0.073866         1.617949        -0.989057
 H        -0.234835        -0.203413        -1.074636
 H         2.876652         2.141554        -0.294327
 H         2.584304         2.061572         1.541289
 H         4.519273         0.353975         1.380475
 H         3.228826        -2.009806         1.143825
