19
Iteration:  2727
 C         4.576252        -1.009180        -1.458631
 C         3.423788        -0.541914        -0.598317
 O         2.241487        -0.165704        -1.241039
 C         1.451925         0.245570        -0.070176
 C         0.063293         0.401269        -0.540128
 C         2.489317         1.422588         0.492138
 C         3.629429         0.510826         0.606190
 C         3.068975        -0.933539         0.746727
 O         1.662405        -0.787870         0.850636
 H         4.449308        -0.569074        -2.454814
 H         5.429612        -0.438635        -1.165022
 H         4.683458        -2.086700        -1.131345
 H        -0.571108         0.517748         0.374830
 H         0.030736         1.338801        -1.159161
 H        -0.227968        -0.495384        -1.123877
 H         2.761930         2.193561        -0.192959
 H         2.251083         1.860237         1.449329
 H         4.590115         0.811765         0.901480
 H         3.381611        -1.775568         1.289397
