19
Iteration:  2069charge 0 multiplicity 1
 C         4.652520        -1.008000        -1.329763
 C         3.422963        -0.526458        -0.630557
 O         2.291415        -0.097651        -1.315205
 C         1.555739         0.383218        -0.190592
 C         0.022847         0.604149        -0.440470
 C         2.494860         1.332479         0.603175
 C         3.652884         0.364853         0.668828
 C         2.952255        -1.050671         0.647046
 O         1.564232        -0.812532         0.772449
 H         4.509517        -1.672135        -2.223611
 H         5.262117        -0.088161        -1.757253
 H         5.216516        -1.650046        -0.628921
 H        -0.492934         0.756642         0.482486
 H        -0.237363         1.384145        -1.185707
 H        -0.141288        -0.309678        -0.890203
 H         2.620835         2.236980        -0.007070
 H         2.160170         1.640403         1.612267
 H         4.718825         0.280619         0.922977
 H         3.319425        -1.957854         1.095452
