19
Iteration:  4318charge 0 multiplicity 1
 C         4.566111        -1.240046        -1.392775
 C         3.516335        -0.396992        -0.625124
 O         2.233416        -0.495042        -1.211714
 C         1.456623         0.154610        -0.107867
 C        -0.029755         0.104388        -0.220653
 C         2.198231         1.522778         0.164845
 C         3.540462         0.826385         0.219387
 C         3.306586        -0.595683         0.867697
 O         1.870352        -0.621828         0.987354
 H         4.847058        -2.054729        -0.660167
 H         4.016375        -1.680806        -2.298357
 H         5.404089        -0.615613        -1.698757
 H        -0.475189         0.735259         0.566694
 H        -0.279993         0.660870        -1.171742
 H        -0.510624        -0.851913        -0.426060
 H         2.132084         2.415691        -0.513718
 H         1.891641         1.680735         1.332311
 H         4.503499         1.293694         0.443881
 H         3.845320        -0.968756         1.822780
