19
Iteration:  2451
 C         4.607787        -1.106712        -1.417003
 C         3.489875        -0.457963        -0.619552
 O         2.265891        -0.149536        -1.275121
 C         1.443855         0.234496        -0.018048
 C         0.031429         0.576976        -0.506885
 C         2.342613         1.351747         0.576422
 C         3.667187         0.534552         0.523294
 C         3.134316        -0.882048         0.785432
 O         1.667283        -0.884475         0.787837
 H         4.361917        -1.502446        -2.389210
 H         5.467145        -0.412656        -1.487634
 H         5.037286        -1.938336        -0.867106
 H        -0.632410         0.922378         0.295680
 H         0.022652         1.207647        -1.399366
 H        -0.523755        -0.238788        -1.003846
 H         2.195363         2.182226        -0.088027
 H         2.056733         1.512220         1.597093
 H         4.666736         0.906797         0.696542
 H         3.494493        -1.857586         1.233531
