19
Iteration:   908
 C         4.580845        -1.119684        -1.378874
 C         3.489109        -0.437385        -0.603650
 O         2.289852        -0.194903        -1.340917
 C         1.471896         0.252242        -0.072239
 C        -0.020984         0.325062        -0.408747
 C         2.403832         1.384785         0.422878
 C         3.625554         0.603816         0.497910
 C         3.078402        -0.799214         0.835579
 O         1.708567        -0.811034         0.858284
 H         4.759096        -2.078482        -0.940495
 H         4.122341        -1.232125        -2.280563
 H         5.505051        -0.566520        -1.422969
 H        -0.567367         0.728835         0.426693
 H        -0.085224         1.118864        -1.190174
 H        -0.239958        -0.667114        -0.773807
 H         2.348887         2.254658        -0.239390
 H         2.050401         1.761013         1.490959
 H         4.587026         1.186223         0.672986
 H         3.683707        -1.675898         1.137623
