19
Iteration:  2993charge 0 multiplicity 1
 C         4.575141        -0.978377        -1.608973
 C         3.493688        -0.485307        -0.596251
 O         2.328438        -0.377347        -1.221877
 C         1.493787         0.241551        -0.109724
 C         0.064299         0.437144        -0.454650
 C         2.313787         1.433707         0.451427
 C         3.620651         0.538625         0.518134
 C         3.102663        -0.812799         0.869164
 O         1.655044        -0.790664         0.934044
 H         5.059831        -1.857633        -1.123823
 H         3.970279        -1.446996        -2.508157
 H         5.445646        -0.311214        -1.704158
 H        -0.472219         0.872280         0.438629
 H         0.080462         1.097614        -1.328855
 H        -0.654220        -0.319906        -0.909104
 H         2.363240         2.173795        -0.287534
 H         1.918429         1.794867         1.322055
 H         4.583955         0.818634         0.872673
 H         3.684281        -1.384536         1.683000
