19
Iteration:  4275charge 0 multiplicity 1
 C         4.591427        -1.149062        -1.428979
 C         3.519693        -0.476081        -0.631012
 O         2.193231        -0.415916        -1.183476
 C         1.450061         0.152047        -0.039618
 C        -0.036015         0.086912        -0.247267
 C         2.278310         1.535822         0.086620
 C         3.574954         0.780269         0.307172
 C         3.196537        -0.597613         0.856441
 O         1.874941        -0.643252         1.034776
 H         5.210757        -1.769936        -0.721325
 H         4.129400        -2.120513        -1.859701
 H         5.153371        -0.619418        -2.223978
 H        -0.625409         0.509988         0.549798
 H        -0.344017         0.544196        -1.193601
 H        -0.308758        -0.910983        -0.461817
 H         2.154653         2.116776        -0.836510
 H         1.915275         2.322915         0.857681
 H         4.552458         1.245558         0.439075
 H         3.858789        -1.105924         1.671933
