19
Iteration:  2189charge 0 multiplicity 1
 C         4.574506        -1.014705        -1.379492
 C         3.484170        -0.485645        -0.599319
 O         2.342545        -0.058536        -1.314717
 C         1.481776         0.261459        -0.183477
 C         0.020934         0.597069        -0.376020
 C         2.497695         1.333233         0.531224
 C         3.577490         0.390133         0.712244
 C         3.031379        -1.009397         0.705784
 O         1.566975        -0.859945         0.673411
 H         5.033470        -0.413086        -2.144602
 H         5.367308        -1.017509        -0.621708
 H         4.312239        -1.998936        -1.683946
 H        -0.335449         0.708720         0.658940
 H        -0.085189         1.451013        -1.083086
 H        -0.420926        -0.301016        -0.759221
 H         2.830537         1.982282        -0.229305
 H         2.300535         1.846446         1.406993
 H         4.518209         0.645142         1.170467
 H         3.586114        -1.823660         1.277869
