19
Iteration:  3564
 C         4.588836        -1.172326        -1.454408
 C         3.521585        -0.456045        -0.565936
 O         2.171103        -0.419014        -1.209503
 C         1.451869         0.166240        -0.104522
 C         0.007756         0.315480        -0.361891
 C         2.270237         1.410778         0.249465
 C         3.635988         0.728805         0.353746
 C         3.184792        -0.622254         0.822611
 O         1.809400        -0.744353         1.010530
 H         5.560852        -0.891563        -0.975366
 H         4.608048        -2.270660        -1.189452
 H         4.470287        -0.769167        -2.558970
 H        -0.450292         0.879589         0.467414
 H        -0.218838         0.970155        -1.238126
 H        -0.470057        -0.655047        -0.549836
 H         2.246679         2.169192        -0.585245
 H         2.044331         1.984204         1.192676
 H         4.489931         1.311632         0.577756
 H         3.781253        -1.319085         1.453191
