19
Iteration:  4852charge 0 multiplicity 1
 C         4.653659        -0.977575        -1.386779
 C         3.504688        -0.532865        -0.495472
 O         2.140477        -0.675408        -1.163164
 C         1.462674         0.065657        -0.145048
 C        -0.061644         0.242814        -0.251700
 C         2.247988         1.456718         0.012806
 C         3.591596         0.753278         0.131504
 C         3.230450        -0.612025         0.884609
 O         1.879800        -0.565478         1.097812
 H         5.566905        -1.201593        -0.811616
 H         4.262564        -1.700991        -2.140809
 H         4.942673        -0.056085        -1.931882
 H        -0.523046         0.591141         0.635039
 H        -0.284736         0.974315        -0.994142
 H        -0.634628        -0.657526        -0.569021
 H         1.966596         2.211419        -0.760320
 H         2.040214         1.857379         1.093223
 H         4.619382         1.251333         0.379029
 H         3.852091        -0.931431         1.827407
