19
Iteration:   443
 C         4.547310        -1.173546        -1.428465
 C         3.476869        -0.416989        -0.622141
 O         2.153335        -0.520101        -1.113477
 C         1.478714         0.116140        -0.083136
 C        -0.043768         0.134020        -0.393961
 C         2.166227         1.479593         0.142661
 C         3.576578         0.792660         0.290918
 C         3.308272        -0.520654         0.889529
 O         1.950055        -0.625688         1.056678
 H         4.264922        -2.236384        -1.536706
 H         4.623732        -0.672321        -2.394265
 H         5.505634        -1.205147        -0.966204
 H        -0.616352         0.581545         0.462964
 H        -0.024283         0.613222        -1.366893
 H        -0.191399        -0.964687        -0.548676
 H         2.074302         2.242614        -0.677409
 H         1.798021         1.905570         1.167291
 H         4.480410         1.323832         0.375721
 H         3.994236        -0.941190         1.533296
