19
Iteration:   402
 C         4.559187        -1.118064        -1.402522
 C         3.515241        -0.457300        -0.596768
 O         2.186207        -0.509369        -1.174557
 C         1.498261         0.108520        -0.081135
 C         0.004851         0.126193        -0.246547
 C         2.159664         1.399748         0.058212
 C         3.526601         0.843519         0.238563
 C         3.274631        -0.500282         0.905333
 O         1.922083        -0.625218         1.054423
 H         4.154406        -1.542052        -2.384323
 H         5.474963        -0.554562        -1.744017
 H         4.994595        -1.985128        -0.842954
 H        -0.495359         0.393338         0.675411
 H        -0.204411         0.743960        -1.110365
 H        -0.438946        -0.800953        -0.536445
 H         1.993129         2.062570        -0.833334
 H         1.744152         2.014133         0.830516
 H         4.514448         1.240655         0.352844
 H         3.758015        -0.996757         1.697058
