19
Iteration:  1956
 C         4.563442        -0.990996        -1.427446
 C         3.419780        -0.440038        -0.597955
 O         2.270618        -0.052003        -1.280932
 C         1.466047         0.402325        -0.077207
 C         0.140559         0.571418        -0.568455
 C         2.511605         1.323785         0.651122
 C         3.673776         0.300264         0.680564
 C         2.985820        -1.054845         0.729452
 O         1.569788        -0.833225         0.747221
 H         4.455342        -2.057757        -1.720159
 H         4.814948        -0.463806        -2.448943
 H         5.496028        -0.974330        -0.793157
 H        -0.632181         0.638002         0.287495
 H         0.006806         1.311396        -1.377173
 H         0.031661        -0.470945        -1.150976
 H         2.794326         2.013835        -0.151320
 H         2.353196         1.668508         1.627562
 H         4.611193         0.528106         1.148177
 H         3.163458        -2.115304         1.111664
