19
Iteration:  1543
 C         4.561174        -1.028629        -1.550569
 C         3.528097        -0.574596        -0.540820
 O         2.438929        -0.100015        -1.269096
 C         1.537675         0.335772        -0.209276
 C         0.138522         0.820746        -0.565462
 C         2.331730         1.236087         0.789673
 C         3.609514         0.377304         0.664237
 C         2.936636        -1.036905         0.753252
 O         1.583026        -0.882762         0.664183
 H         5.427573        -0.655421        -1.128417
 H         4.555559        -2.177257        -1.465367
 H         4.296388        -0.836568        -2.589434
 H        -0.340948         0.826018         0.414217
 H         0.007323         1.866154        -0.958988
 H        -0.419936         0.170556        -1.169425
 H         2.508687         2.323847         0.402617
 H         2.010167         1.133870         1.861913
 H         4.396207         0.530418         1.421628
 H         3.174264        -1.768356         1.459016
