19
Iteration:  3867
 C         4.616516        -1.123449        -1.376741
 C         3.496827        -0.462449        -0.690737
 O         2.187455        -0.412075        -1.293142
 C         1.461229         0.188003        -0.113053
 C        -0.020246         0.345004        -0.349394
 C         2.249748         1.357689         0.380436
 C         3.599641         0.718078         0.327264
 C         3.177560        -0.672536         0.835058
 O         1.804704        -0.690792         0.989508
 H         5.595451        -0.840433        -1.067027
 H         4.942185        -2.149742        -0.958656
 H         4.704188        -1.205726        -2.436312
 H        -0.466847         0.822152         0.497755
 H        -0.026386         1.040485        -1.228847
 H        -0.494412        -0.624284        -0.535217
 H         2.090578         2.214239        -0.230920
 H         1.963103         1.586163         1.378640
 H         4.682464         1.137001         0.439873
 H         3.837588        -1.288599         1.517053
