19
Iteration:  1091charge 0 multiplicity 1
 C         4.570428        -1.021404        -1.438341
 C         3.498310        -0.489390        -0.572675
 O         2.255637        -0.224305        -1.287653
 C         1.488278         0.254492        -0.169712
 C         0.129913         0.591786        -0.459815
 C         2.316553         1.298127         0.583816
 C         3.599699         0.538256         0.568009
 C         3.123149        -0.894914         0.778546
 O         1.656564        -0.866182         0.754540
 H         4.198405        -1.823648        -2.152223
 H         5.279283        -0.372070        -1.931171
 H         5.294426        -1.526969        -0.730750
 H        -0.349417         0.935489         0.446303
 H         0.168465         1.441729        -1.183883
 H        -0.369918        -0.225139        -0.933598
 H         2.246925         2.187927         0.085038
 H         2.035676         1.412093         1.556077
 H         4.406062         1.003891         1.144787
 H         3.458741        -1.664072         1.417667
