19
Iteration:  3585
 C         4.603435        -1.047761        -1.349564
 C         3.430499        -0.455322        -0.625679
 O         2.145864        -0.355642        -1.255142
 C         1.442391         0.144342        -0.039314
 C         0.011043         0.282812        -0.311705
 C         2.341829         1.466154         0.120324
 C         3.622151         0.636190         0.315427
 C         3.239817        -0.788725         0.834005
 O         1.814125        -0.688145         1.035253
 H         5.335621        -0.989655        -0.537063
 H         4.456841        -2.151270        -1.340794
 H         4.752089        -0.357834        -2.190779
 H        -0.688465         0.632563         0.497468
 H        -0.200884         0.896617        -1.244683
 H        -0.443581        -0.737623        -0.478663
 H         2.345908         2.039913        -0.891122
 H         2.083214         2.218285         0.935422
 H         4.616514         0.931432         0.503841
 H         3.771827        -1.386622         1.619644
