19
Iteration:  1150
 C         4.576062        -0.925486        -1.553841
 C         3.533624        -0.469004        -0.586394
 O         2.357086        -0.202557        -1.278589
 C         1.516231         0.290423        -0.169434
 C         0.097346         0.450928        -0.496136
 C         2.470855         1.376045         0.614740
 C         3.626662         0.357301         0.662078
 C         2.952562        -0.953075         0.850562
 O         1.523936        -0.765775         0.751754
 H         5.131015        -1.733390        -1.134113
 H         3.980348        -1.239049        -2.424614
 H         5.230981        -0.091268        -1.658226
 H        -0.454635         0.537226         0.481922
 H        -0.055260         1.374248        -1.043383
 H        -0.360422        -0.417957        -1.100865
 H         2.673975         2.305348        -0.001299
 H         2.246706         1.688587         1.676333
 H         4.636533         0.646165         1.019472
 H         3.274108        -1.854412         1.425061
