19
Iteration:  3132charge 0 multiplicity 1
 C         4.549970        -1.016865        -1.462184
 C         3.505853        -0.476470        -0.593602
 O         2.168201        -0.321925        -1.211346
 C         1.494025         0.194764        -0.157711
 C         0.009249         0.395439        -0.481043
 C         2.353058         1.428123         0.293480
 C         3.645941         0.624778         0.421442
 C         3.146028        -0.773002         0.879559
 O         1.748230        -0.820903         1.083939
 H         4.251696        -0.932474        -2.503495
 H         5.521106        -0.466974        -1.532021
 H         4.845186        -2.100470        -1.336406
 H        -0.496938         0.559307         0.470781
 H        -0.021913         0.931857        -1.423653
 H        -0.377082        -0.569777        -0.834464
 H         2.367771         2.242677        -0.492910
 H         2.036021         1.878837         1.342918
 H         4.697748         0.951899         0.661102
 H         3.742515        -1.484222         1.572402
