19
Iteration:  4149charge 0 multiplicity 1
 C         4.590380        -1.200164        -1.338339
 C         3.471105        -0.440215        -0.651002
 O         2.149299        -0.333267        -1.286981
 C         1.455378         0.200445        -0.070935
 C        -0.010592         0.071828        -0.302371
 C         2.337094         1.506550         0.177237
 C         3.593851         0.750925         0.319022
 C         3.267638        -0.625740         0.829905
 O         1.810964        -0.668347         1.055347
 H         4.939876        -0.649397        -2.184397
 H         5.275078        -1.383391        -0.595722
 H         4.221569        -2.214013        -1.558685
 H        -0.661646         0.539645         0.511211
 H        -0.338686         0.649078        -1.241839
 H        -0.434563        -0.992946        -0.487717
 H         2.386057         2.266086        -0.709093
 H         2.057953         1.975974         1.178571
 H         4.569441         1.295172         0.347081
 H         3.846571        -1.368905         1.561702
