19
Iteration:  2513
 C         4.612686        -1.024632        -1.414955
 C         3.544981        -0.529096        -0.582965
 O         2.207928        -0.090415        -1.301209
 C         1.503641         0.256261        -0.115579
 C        -0.022099         0.485045        -0.436653
 C         2.481403         1.392614         0.382775
 C         3.585153         0.469962         0.611465
 C         3.054474        -0.905140         0.821942
 O         1.643499        -0.921023         0.828172
 H         4.381755        -0.550940        -2.405228
 H         5.685661        -0.480102        -1.311826
 H         4.743953        -2.110695        -1.289176
 H        -0.606731         0.660332         0.456050
 H        -0.094168         1.392395        -1.076460
 H        -0.224140        -0.463902        -0.813351
 H         2.654282         2.188123        -0.516940
 H         2.282548         1.883015         1.432744
 H         4.507531         0.811207         1.086522
 H         3.598544        -1.642793         1.485867
