19
Iteration:  1318charge 0 multiplicity 1
 C         4.629909        -1.021828        -1.469288
 C         3.463626        -0.562275        -0.557371
 O         2.320416        -0.101926        -1.280496
 C         1.530431         0.272711        -0.135284
 C         0.139968         0.702093        -0.524958
 C         2.377512         1.271057         0.694312
 C         3.623593         0.414843         0.624798
 C         3.002116        -1.002755         0.767571
 O         1.581472        -0.849107         0.678092
 H         4.143774        -1.162815        -2.414978
 H         5.381062        -0.262630        -1.570831
 H         5.029787        -1.986855        -1.205640
 H        -0.539934         0.684775         0.343535
 H         0.235366         1.787971        -0.874992
 H        -0.458954         0.116436        -1.187043
 H         2.320394         2.385779         0.290881
 H         1.856908         1.240249         1.731182
 H         4.646402         0.612275         1.005405
 H         3.431059        -1.839331         1.390408
