19
Iteration:   627
 C         4.576855        -1.116681        -1.386575
 C         3.512544        -0.462516        -0.594307
 O         2.185197        -0.443194        -1.270354
 C         1.430415         0.147301        -0.121071
 C        -0.016945         0.222187        -0.356434
 C         2.255041         1.384634         0.273466
 C         3.625414         0.726691         0.351974
 C         3.286969        -0.603732         0.892671
 O         1.822791        -0.630007         0.989378
 H         4.200829        -1.104126        -2.438984
 H         5.469934        -0.464720        -1.476377
 H         4.972937        -2.143384        -1.146724
 H        -0.709750         0.584620         0.423369
 H        -0.313034         0.945209        -1.175938
 H        -0.361835        -0.782774        -0.685081
 H         2.171977         2.210625        -0.363417
 H         1.890189         1.623803         1.292822
 H         4.513278         1.418537         0.483360
 H         3.681379        -1.442369         1.544878
