19
Iteration:  3543
 C         4.497341        -1.204176        -1.504204
 C         3.498262        -0.463823        -0.589377
 O         2.303770        -0.453690        -1.210762
 C         1.526772         0.177849        -0.113487
 C        -0.024515         0.270499        -0.380774
 C         2.243587         1.476357         0.322001
 C         3.588238         0.719625         0.362260
 C         3.252887        -0.595822         0.936198
 O         1.784661        -0.694372         0.948049
 H         5.638205        -1.008909        -1.513006
 H         4.545790        -2.348696        -1.265234
 H         4.084950        -1.025825        -2.682877
 H        -0.351607         0.962572         0.338281
 H        -0.229832         0.960127        -1.220340
 H        -0.426227        -0.659465        -0.684033
 H         2.134533         2.446824        -0.184461
 H         1.699311         1.569566         1.296911
 H         4.474856         1.268111         0.575078
 H         3.714327        -1.115147         1.830713
