19
Iteration:  4296charge 0 multiplicity 1
 C         4.519662        -1.250597        -1.330023
 C         3.498834        -0.371082        -0.593087
 O         2.178832        -0.355422        -1.243242
 C         1.418705         0.141357        -0.090389
 C        -0.002971         0.116887        -0.251746
 C         2.212307         1.407897         0.064340
 C         3.646974         0.849767         0.303309
 C         3.293759        -0.515596         0.855148
 O         1.868709        -0.741369         1.034186
 H         5.045587        -2.021207        -0.646311
 H         4.003936        -1.867634        -2.172478
 H         5.187426        -0.532924        -1.785210
 H        -0.353967         0.634070         0.656970
 H        -0.537724         0.549527        -1.121253
 H        -0.333865        -0.928099        -0.330063
 H         2.291323         1.945296        -0.905844
 H         1.970262         2.269837         0.918035
 H         4.530590         1.447750         0.562202
 H         4.073805        -1.238957         1.357727
