19
Iteration:  3663
 C         4.507741        -1.162958        -1.445877
 C         3.474489        -0.369324        -0.589457
 O         2.151965        -0.390192        -1.101515
 C         1.478211         0.179177         0.011333
 C         0.020163         0.207382        -0.480269
 C         2.284713         1.463118         0.186183
 C         3.661352         0.777455         0.342373
 C         3.241242        -0.689051         0.866594
 O         1.854988        -0.779191         1.027307
 H         4.814423        -2.054446        -0.851895
 H         3.913061        -1.431379        -2.263285
 H         5.396201        -0.605881        -1.886317
 H        -0.583566         0.756518         0.184460
 H         0.014582         0.915243        -1.357755
 H        -0.268464        -0.713249        -0.975573
 H         2.093306         1.913634        -0.789578
 H         1.881701         2.198258         0.999050
 H         4.569181         1.363195         0.520111
 H         3.730269        -1.255652         1.608570
