19
Iteration:  3486charge 0 multiplicity 1
 C         4.639918        -1.130923        -1.409665
 C         3.440842        -0.500594        -0.608189
 O         2.127754        -0.346324        -1.218231
 C         1.464461         0.233882        -0.072658
 C        -0.001743         0.193896        -0.358036
 C         2.388299         1.464465         0.229097
 C         3.671020         0.680348         0.314617
 C         3.187324        -0.729112         0.857101
 O         1.767056        -0.650121         0.997283
 H         5.502084        -0.862255        -0.825124
 H         4.485889        -2.271529        -1.450218
 H         4.557394        -0.510836        -2.310841
 H        -0.620826         0.445500         0.517152
 H        -0.287245         0.756285        -1.254992
 H        -0.379017        -0.800890        -0.439194
 H         2.308558         2.131709        -0.713498
 H         2.004146         2.020068         1.092609
 H         4.643195         1.131891         0.592803
 H         3.670370        -1.389041         1.576853
