19
Iteration:  1432
 C         4.532516        -0.952998        -1.505329
 C         3.516101        -0.444186        -0.530403
 O         2.305822        -0.011391        -1.178852
 C         1.489831         0.238802        -0.073267
 C         0.169846         0.778567        -0.647383
 C         2.483298         1.278049         0.605766
 C         3.560483         0.316257         0.677034
 C         2.969979        -1.082378         0.867630
 O         1.567303        -1.018422         0.671269
 H         4.981456        -1.931282        -1.322544
 H         4.052692        -0.944677        -2.482067
 H         5.450206        -0.379581        -1.643090
 H        -0.391214         1.211091         0.160075
 H         0.526832         1.538314        -1.308485
 H        -0.453836         0.024169        -1.117473
 H         2.781727         2.060361        -0.166028
 H         2.148928         1.889393         1.430219
 H         4.515949         0.617247         1.059700
 H         3.427120        -1.952976         1.460789
