19
Iteration:  1593charge 0 multiplicity 1
 C         4.596718        -0.985243        -1.384780
 C         3.456163        -0.501367        -0.552368
 O         2.295710         0.076101        -1.273420
 C         1.519066         0.334768        -0.139522
 C         0.146447         0.708914        -0.582399
 C         2.499280         1.357975         0.598458
 C         3.601993         0.223548         0.760177
 C         2.936149        -1.187622         0.641356
 O         1.564036        -0.948718         0.760141
 H         5.573705        -0.646643        -0.870954
 H         4.525551        -2.012376        -1.705172
 H         4.465143        -0.406844        -2.328225
 H        -0.498710         1.126605         0.205428
 H         0.316104         1.537609        -1.310063
 H        -0.380202        -0.131371        -1.097459
 H         2.697671         2.245218        -0.012460
 H         2.108959         1.683016         1.562410
 H         4.677504         0.319279         1.080547
 H         3.364196        -1.919192         1.270517
