19
Iteration:  3724charge 0 multiplicity 1
 C         4.572033        -1.093840        -1.389752
 C         3.489780        -0.484745        -0.621742
 O         2.245786        -0.403631        -1.258640
 C         1.441326         0.204349        -0.091613
 C        -0.053963         0.214039        -0.254718
 C         2.344005         1.514553         0.122135
 C         3.677025         0.746166         0.411463
 C         3.160040        -0.690229         0.871341
 O         1.773739        -0.748495         0.965070
 H         5.004813        -2.007848        -0.951441
 H         4.323978        -1.585796        -2.434276
 H         5.392949        -0.362894        -1.573543
 H        -0.519653         0.625720         0.689618
 H        -0.392712         0.868332        -1.113102
 H        -0.499145        -0.789751        -0.173818
 H         2.328180         2.087831        -0.852198
 H         1.898024         2.131746         0.855104
 H         4.557785         1.024308         0.829346
 H         3.715773        -1.232891         1.532417
