19
Iteration:  1713charge 0 multiplicity 1
 C         4.529340        -0.965719        -1.515876
 C         3.536215        -0.533845        -0.499525
 O         2.424631        -0.042446        -1.379200
 C         1.562561         0.341013        -0.191067
 C         0.093838         0.576079        -0.534554
 C         2.482694         1.329182         0.701578
 C         3.581955         0.296810         0.735164
 C         2.920551        -1.056831         0.782277
 O         1.531106        -0.805954         0.740975
 H         4.731156        -2.150578        -1.512713
 H         4.056809        -0.653536        -2.463107
 H         5.566542        -0.443364        -1.417105
 H        -0.590106         0.565890         0.351629
 H        -0.013842         1.608657        -1.075067
 H        -0.385426        -0.167094        -1.174295
 H         2.704646         2.151221         0.108815
 H         2.148895         1.609234         1.660278
 H         4.407332         0.449279         1.409376
 H         3.280087        -1.984412         1.256691
