19
Iteration:  1428
 C         4.536466        -0.933646        -1.514555
 C         3.495787        -0.465983        -0.558489
 O         2.319864         0.008508        -1.174593
 C         1.481052         0.252426        -0.082998
 C         0.188849         0.752001        -0.634906
 C         2.474192         1.284868         0.590661
 C         3.583602         0.294569         0.687918
 C         2.976254        -1.066724         0.859450
 O         1.541216        -1.025374         0.703544
 H         4.826091        -1.986505        -1.250843
 H         4.092009        -0.888198        -2.483732
 H         5.440655        -0.326705        -1.583981
 H        -0.382031         1.254725         0.172131
 H         0.465426         1.484248        -1.409779
 H        -0.350324        -0.067366        -1.202907
 H         2.907326         2.057596        -0.188540
 H         2.111040         1.878628         1.498534
 H         4.550758         0.551737         1.099903
 H         3.401493        -1.857623         1.400037
