19
Iteration:  4869charge 0 multiplicity 1
 C         4.673954        -1.036462        -1.441236
 C         3.475486        -0.538239        -0.641080
 O         2.198508        -0.626055        -1.161277
 C         1.457405         0.084944        -0.129509
 C        -0.055233         0.235889        -0.250558
 C         2.216272         1.375006         0.041743
 C         3.579318         0.771684         0.240645
 C         3.263365        -0.431013         0.968773
 O         1.800729        -0.638641         1.100312
 H         5.332922        -1.539439        -0.713092
 H         4.412635        -1.726024        -2.255770
 H         5.259887        -0.311266        -2.018485
 H        -0.216755         0.603109         0.809772
 H        -0.209824         1.123795        -0.925589
 H        -0.495371        -0.757095        -0.311270
 H         2.246621         2.042949        -0.884036
 H         1.771737         2.076386         0.747501
 H         4.422141         1.407549         0.196219
 H         3.842513        -0.988219         1.548972
