19
Iteration:  4762
 C         4.517437        -1.291380        -1.357972
 C         3.539136        -0.383230        -0.670791
 O         2.259278        -0.394819        -1.283221
 C         1.418231         0.142425        -0.038524
 C        -0.068257         0.143723        -0.320815
 C         2.181245         1.468083         0.213841
 C         3.578651         0.847710         0.271093
 C         3.361764        -0.531358         0.871729
 O         1.871758        -0.691695         1.049364
 H         5.572056        -0.939714        -1.283309
 H         4.340701        -2.283030        -0.767079
 H         4.250497        -1.458369        -2.368603
 H        -0.674366         0.625972         0.445205
 H        -0.407990         0.395813        -1.312737
 H        -0.307316        -0.903801        -0.335964
 H         2.095930         2.075836        -0.792286
 H         1.945882         1.894412         1.291176
 H         4.414728         1.460329         0.370041
 H         4.025690        -0.979545         1.549842
