19
Iteration:    82charge 0 multiplicity 1
 C         4.615083        -1.097539        -1.295124
 C         3.405897        -0.455748        -0.663911
 O         2.071945        -0.663617        -1.038574
 C         1.425347         0.039132         0.015012
 C        -0.058762         0.031943        -0.307069
 C         2.057958         1.473663         0.007587
 C         3.544479         0.907919        -0.006760
 C         3.439678        -0.428746         0.737140
 O         2.102392        -0.548056         1.232654
 H         5.185770        -0.383866        -1.974626
 H         5.353259        -1.499906        -0.494114
 H         4.401575        -2.022372        -1.948712
 H        -0.651227         0.519678         0.468627
 H        -0.164941         0.635093        -1.243699
 H        -0.509100        -0.941706        -0.481170
 H         1.772362         1.916214        -0.974198
 H         1.702792         2.000359         0.930379
 H         4.429733         1.542286         0.000454
 H         4.222347        -0.780713         1.460354
