19
Iteration:  4083charge 0 multiplicity 1
 C         4.555356        -1.019231        -1.501018
 C         3.537315        -0.614195        -0.563604
 O         2.205135        -0.516162        -1.119374
 C         1.477619         0.161657        -0.120310
 C        -0.000522         0.251414        -0.421520
 C         2.266731         1.425047         0.177747
 C         3.566023         0.708173         0.316122
 C         3.259823        -0.638226         0.934502
 O         1.788629        -0.610172         1.035025
 H         4.048390        -1.144317        -2.429465
 H         5.294612        -0.402867        -1.597693
 H         5.082443        -1.922348        -1.252358
 H        -0.273331         0.768863         0.525053
 H        -0.187911         0.972824        -1.275132
 H        -0.498914        -0.712110        -0.690526
 H         2.243253         2.352482        -0.523630
 H         1.914237         1.791386         1.165733
 H         4.380433         1.356305         0.478285
 H         3.833199        -1.094389         1.770212
