19
Iteration:  1351charge 0 multiplicity 1
 C         4.629738        -1.074692        -1.402118
 C         3.517637        -0.401502        -0.582016
 O         2.343013         0.018807        -1.268101
 C         1.489174         0.263757        -0.096229
 C         0.112272         0.730729        -0.434728
 C         2.359311         1.328677         0.559189
 C         3.544389         0.339127         0.753850
 C         3.026997        -1.109100         0.670159
 O         1.611130        -0.965791         0.642123
 H         3.973048        -1.861967        -1.742313
 H         5.106964        -0.630080        -2.245449
 H         5.363559        -1.420863        -0.677275
 H        -0.336938         1.004167         0.545306
 H         0.260207         1.753953        -0.937626
 H        -0.443321         0.132650        -1.139415
 H         2.407375         2.083202        -0.356719
 H         1.767953         1.736848         1.473516
 H         4.611617         0.595183         0.975367
 H         3.550210        -1.919038         1.172533
