19
Iteration:  2176charge 0 multiplicity 1
 C         4.700478        -1.084362        -1.437921
 C         3.498827        -0.494300        -0.624502
 O         2.320360        -0.052718        -1.361293
 C         1.505716         0.357630        -0.150640
 C         0.005977         0.524974        -0.414167
 C         2.426389         1.337207         0.594567
 C         3.674551         0.343511         0.720145
 C         2.993001        -1.007280         0.725201
 O         1.555556        -0.769696         0.750454
 H         4.642803        -0.544235        -2.325977
 H         5.706618        -1.007538        -0.946948
 H         4.646316        -2.095329        -1.724227
 H        -0.551839         0.803310         0.538595
 H        -0.281932         1.464471        -1.095459
 H        -0.476343        -0.360651        -0.887536
 H         2.631609         2.242529         0.007047
 H         1.841865         1.584060         1.493972
 H         4.637884         0.564381         1.176734
 H         3.210889        -1.967244         1.251867
