19
Iteration:   990charge 0 multiplicity 1
 C         4.646257        -1.039797        -1.546072
 C         3.557965        -0.444469        -0.571165
 O         2.200286        -0.367201        -1.262729
 C         1.446205         0.202217        -0.138317
 C         0.080968         0.647170        -0.563997
 C         2.305325         1.401996         0.532342
 C         3.592122         0.598531         0.578061
 C         3.132406        -0.908058         0.837966
 O         1.695707        -0.890274         0.951472
 H         5.461497        -0.347599        -1.848363
 H         5.310801        -1.959716        -1.169060
 H         4.106028        -1.330482        -2.496457
 H        -0.473651         0.883345         0.351708
 H         0.256284         1.416252        -1.257227
 H        -0.587557        -0.094472        -1.066293
 H         2.274598         2.230618        -0.197010
 H         1.736478         1.599287         1.373637
 H         4.453266         1.091245         0.972123
 H         3.672071        -1.621059         1.452207
