19
Iteration:   205
 C         4.527051        -1.160242        -1.402647
 C         3.508708        -0.443850        -0.605448
 O         2.215966        -0.747296        -1.114151
 C         1.433846         0.015745        -0.101280
 C        -0.095968         0.068351        -0.317283
 C         2.115642         1.457877         0.027258
 C         3.541414         0.957058         0.123725
 C         3.380017        -0.309376         0.898360
 O         1.986875        -0.581023         1.160449
 H         4.402928        -2.303941        -1.362990
 H         4.516293        -0.919394        -2.500283
 H         5.559948        -0.950529        -1.024679
 H        -0.428514         0.597992         0.608182
 H        -0.190470         0.808126        -1.109803
 H        -0.747437        -0.814864        -0.529372
 H         2.042330         2.118843        -0.821604
 H         1.993847         2.019436         0.981417
 H         4.329404         1.613835         0.543033
 H         4.037835        -0.702515         1.686859
