19
Iteration:  2146charge 0 multiplicity 1
 C         4.522264        -1.051648        -1.453096
 C         3.436153        -0.504661        -0.635196
 O         2.298185        -0.081894        -1.262792
 C         1.529865         0.311481        -0.050647
 C         0.121071         0.582158        -0.644823
 C         2.447566         1.317657         0.705822
 C         3.699384         0.438854         0.646839
 C         3.051030        -0.971478         0.761533
 O         1.530931        -0.869637         0.759761
 H         4.294918        -0.797375        -2.526324
 H         5.485621        -0.503372        -1.317158
 H         4.725481        -2.135732        -1.432315
 H        -0.488619         0.769744         0.222363
 H         0.234271         1.426007        -1.299168
 H        -0.278301        -0.229223        -1.166998
 H         2.588611         2.180155         0.129924
 H         1.944379         1.400012         1.626105
 H         4.695724         0.620697         1.032427
 H         3.520139        -1.725268         1.488054
