19
Iteration:   584charge 0 multiplicity 1
 C         4.573053        -1.115061        -1.458744
 C         3.454734        -0.455446        -0.555488
 O         2.214593        -0.304560        -1.221586
 C         1.449368         0.195504        -0.033122
 C        -0.042765         0.082919        -0.356032
 C         2.274397         1.451432         0.090531
 C         3.657832         0.720954         0.445016
 C         3.273734        -0.628288         0.897791
 O         1.799268        -0.681095         0.999103
 H         4.883271        -0.353912        -2.156442
 H         5.233154        -1.734194        -0.866559
 H         4.059842        -1.903089        -1.957537
 H        -0.729457         0.325128         0.516493
 H        -0.376847         0.742567        -1.237573
 H        -0.136931        -1.001922        -0.638865
 H         2.321054         1.862219        -0.892871
 H         1.863355         2.142907         0.867521
 H         4.677040         1.169219         0.709675
 H         3.984938        -1.246557         1.540366
