19
Iteration:   957charge 0 multiplicity 1
 C         4.576034        -0.979772        -1.426467
 C         3.499059        -0.496729        -0.560261
 O         2.229573        -0.208364        -1.290592
 C         1.500602         0.150751        -0.078682
 C         0.016020         0.434159        -0.473955
 C         2.434427         1.393909         0.388725
 C         3.689932         0.574517         0.541260
 C         3.091027        -0.920989         0.888994
 O         1.632046        -0.813317         0.842884
 H         5.511286        -0.523922        -1.042690
 H         4.561296        -2.188705        -1.552344
 H         4.273311        -0.394092        -2.328245
 H        -0.518352         0.768028         0.434018
 H         0.052548         1.309345        -1.068464
 H        -0.387058        -0.471304        -0.976032
 H         2.542590         2.058629        -0.497822
 H         2.065243         1.984851         1.174214
 H         4.656406         0.864806         0.800375
 H         3.451803        -1.687459         1.541300
