19
Iteration:  1034
 C         4.580198        -1.044121        -1.395427
 C         3.481997        -0.492391        -0.605619
 O         2.241078        -0.091265        -1.263943
 C         1.499012         0.300221        -0.152611
 C         0.053659         0.387401        -0.464007
 C         2.429187         1.469429         0.462731
 C         3.655558         0.509244         0.673122
 C         3.044980        -0.955673         0.741513
 O         1.631050        -0.856682         0.825476
 H         4.668023        -0.619795        -2.403100
 H         5.625130        -0.770808        -0.936398
 H         4.292165        -2.127872        -1.544648
 H        -0.503603         0.635716         0.432924
 H        -0.000091         0.959337        -1.342406
 H        -0.307293        -0.638808        -0.706095
 H         2.636184         2.159125        -0.377380
 H         2.152319         1.978479         1.344991
 H         4.753033         0.608218         0.821629
 H         3.471262        -1.851464         1.285347
