19
Iteration:  1262
 C         4.523464        -0.915738        -1.471729
 C         3.483506        -0.473449        -0.520177
 O         2.362598        -0.065128        -1.249578
 C         1.549392         0.371452        -0.090361
 C         0.073663         0.544932        -0.534318
 C         2.519067         1.331735         0.570100
 C         3.599464         0.339489         0.700439
 C         2.956037        -1.081383         0.804256
 O         1.555268        -0.904898         0.665800
 H         4.703500        -0.293670        -2.281873
 H         5.495778        -1.190322        -1.003861
 H         4.252728        -1.833582        -1.947760
 H        -0.491264         0.922423         0.339185
 H        -0.104198         1.368043        -1.314785
 H        -0.282095        -0.375931        -1.000713
 H         2.769409         2.110242        -0.262997
 H         2.285975         1.942569         1.523487
 H         4.540848         0.643194         1.080400
 H         3.367031        -1.930307         1.384937
