19
Iteration:  1215charge 0 multiplicity 1
 C         4.632814        -1.097816        -1.324472
 C         3.523611        -0.402784        -0.602964
 O         2.245024        -0.124276        -1.291833
 C         1.446194         0.240421        -0.119615
 C         0.062211         0.783664        -0.496079
 C         2.307871         1.283798         0.676745
 C         3.631792         0.430096         0.574310
 C         3.109859        -0.938932         0.681740
 O         1.667281        -1.000270         0.710978
 H         5.591146        -0.533371        -1.430504
 H         4.860916        -2.159411        -1.012428
 H         4.409061        -1.127660        -2.411952
 H        -0.499634         1.282426         0.332630
 H         0.053434         1.489792        -1.300513
 H        -0.449320        -0.141745        -0.990531
 H         2.400206         2.267742         0.312248
 H         1.938413         1.428509         1.679355
 H         4.572484         0.894580         0.964501
 H         3.633007        -1.747118         1.143611
