19
Iteration:  2662charge 0 multiplicity 1
 C         4.620320        -0.996286        -1.404519
 C         3.527807        -0.429129        -0.590499
 O         2.169677        -0.187205        -1.228571
 C         1.484550         0.192752        -0.134882
 C         0.028283         0.544801        -0.480054
 C         2.351339         1.395799         0.396140
 C         3.600680         0.509024         0.593940
 C         3.103178        -0.914897         0.799769
 O         1.747163        -0.915290         0.857270
 H         5.205746        -0.364503        -2.201244
 H         5.291920        -1.596211        -0.818060
 H         4.042925        -1.808541        -2.033752
 H        -0.410363         0.866293         0.530437
 H         0.138417         1.302369        -1.357245
 H        -0.570985        -0.241857        -1.050388
 H         2.475258         2.130555        -0.341770
 H         2.114277         1.718707         1.374526
 H         4.527783         0.900885         0.926524
 H         3.601249        -1.647088         1.430681
