19
Iteration:  2785charge 0 multiplicity 1
 C         4.579985        -1.099038        -1.434809
 C         3.600042        -0.427610        -0.558265
 O         2.310762        -0.213107        -1.332948
 C         1.505766         0.258596        -0.189458
 C         0.052981         0.547478        -0.393036
 C         2.277278         1.392165         0.475364
 C         3.613551         0.556718         0.598768
 C         3.055561        -0.851967         0.766257
 O         1.652557        -0.907836         0.805630
 H         4.352474        -1.053819        -2.485117
 H         5.675044        -0.959822        -1.166100
 H         4.495260        -2.174885        -1.405315
 H        -0.254503         0.898560         0.668605
 H        -0.178119         1.382992        -1.178271
 H        -0.431573        -0.455097        -0.509937
 H         2.262949         2.346081         0.002484
 H         1.936357         1.493343         1.484569
 H         4.671556         0.821733         1.052832
 H         3.518324        -1.630759         1.460507
