19
Iteration:  1446
 C         4.579939        -1.012591        -1.503012
 C         3.545923        -0.521385        -0.509282
 O         2.323076        -0.154782        -1.258265
 C         1.490394         0.250640        -0.109203
 C         0.133053         0.847647        -0.553473
 C         2.365362         1.314192         0.648667
 C         3.630056         0.409023         0.783932
 C         3.003046        -1.064507         0.749521
 O         1.598489        -0.949034         0.624005
 H         5.066911        -1.921019        -1.159268
 H         3.931539        -1.306910        -2.445714
 H         5.217016        -0.134624        -1.768313
 H        -0.412090         1.284180         0.297378
 H         0.336110         1.722742        -1.260294
 H        -0.458659         0.198976        -1.167711
 H         2.390045         2.093007        -0.012091
 H         2.046234         1.540464         1.627867
 H         4.587119         0.680084         1.304205
 H         3.260263        -1.933401         1.318098
