19
Iteration:  4441
 C         4.612804        -1.230958        -1.308179
 C         3.458738        -0.421078        -0.702827
 O         2.148285        -0.438808        -1.195074
 C         1.415867         0.170842         0.024201
 C        -0.061003         0.059722        -0.276060
 C         2.230334         1.497841         0.111572
 C         3.570539         0.785725         0.204473
 C         3.303303        -0.477059         0.795309
 O         1.966641        -0.687792         1.066751
 H         4.034186        -1.785191        -2.015674
 H         5.364651        -0.671036        -1.769283
 H         4.936358        -1.726242        -0.336308
 H        -0.732789         0.508855         0.436718
 H        -0.308619         0.542216        -1.173436
 H        -0.485544        -0.900479        -0.403023
 H         2.241939         2.107067        -0.915817
 H         1.857978         2.231001         0.851929
 H         4.512359         1.317134         0.362359
 H         4.062749        -0.968794         1.514438
