19
Iteration:  1604charge 0 multiplicity 1
 C         4.648834        -0.967130        -1.425334
 C         3.507854        -0.563610        -0.579596
 O         2.340738         0.017355        -1.283976
 C         1.535495         0.391818        -0.125156
 C         0.073055         0.676487        -0.524289
 C         2.526473         1.284793         0.640238
 C         3.608738         0.259719         0.730890
 C         2.886610        -1.078407         0.738553
 O         1.481766        -0.887560         0.667626
 H         5.706476        -0.946736        -0.945355
 H         4.563134        -1.992727        -1.767591
 H         4.720593        -0.256394        -2.285180
 H        -0.476294         0.942042         0.390563
 H        -0.055238         1.435045        -1.345529
 H        -0.328049        -0.304505        -0.840528
 H         2.951009         2.110159         0.076533
 H         2.246300         1.605703         1.637183
 H         4.602844         0.596861         1.137034
 H         3.137986        -2.060378         1.010517
