19
Iteration:   924charge 0 multiplicity 1
 C         4.625054        -1.115618        -1.414226
 C         3.490651        -0.507664        -0.637567
 O         2.214020        -0.191898        -1.280459
 C         1.527605         0.279233        -0.207471
 C         0.027328         0.293902        -0.408998
 C         2.324119         1.432660         0.478786
 C         3.646371         0.541075         0.547755
 C         3.127092        -0.880680         0.775259
 O         1.681447        -0.656675         0.870903
 H         5.284716        -1.729562        -0.717511
 H         4.320637        -1.613362        -2.482025
 H         5.326608        -0.306991        -1.782477
 H        -0.447333         0.535323         0.575698
 H        -0.433903         0.961656        -1.110571
 H        -0.340913        -0.722614        -0.685967
 H         2.553511         2.340343        -0.111312
 H         1.892793         1.666301         1.392401
 H         4.589033         0.724955         0.974094
 H         3.389943        -1.537898         1.567001
