19
Iteration:  2002charge 0 multiplicity 1
 C         4.498720        -1.065668        -1.574739
 C         3.561459        -0.426779        -0.555039
 O         2.371381        -0.175023        -1.268451
 C         1.584417         0.267959        -0.199610
 C         0.163169         0.737955        -0.537022
 C         2.301018         1.245389         0.743255
 C         3.581285         0.380098         0.752908
 C         3.013637        -0.969241         0.793624
 O         1.604152        -0.816743         0.706912
 H         4.422959        -2.151062        -1.582407
 H         4.213648        -0.774894        -2.716797
 H         5.585316        -0.973357        -1.410576
 H        -0.277515         1.126979         0.374974
 H         0.212577         1.580698        -1.279772
 H        -0.407384        -0.037585        -1.069690
 H         2.347105         2.169322         0.153896
 H         1.535049         1.180331         1.476312
 H         4.539392         0.674355         1.207442
 H         3.461777        -1.714715         1.424695
