19
Iteration:  3828charge 0 multiplicity 1
 C         4.474109        -1.191933        -1.494417
 C         3.515997        -0.362489        -0.572063
 O         2.255899        -0.260495        -1.228232
 C         1.487452         0.185155        -0.102132
 C         0.002138         0.183754        -0.338683
 C         2.335783         1.478166         0.194053
 C         3.647406         0.685370         0.501501
 C         3.187304        -0.704647         0.932355
 O         1.783634        -0.758557         0.924886
 H         5.469880        -0.747796        -1.214764
 H         4.318194        -2.170060        -1.188973
 H         4.211922        -1.086972        -2.568137
 H        -0.714449         0.584484         0.422378
 H        -0.313041         0.669350        -1.278179
 H        -0.169235        -0.858523        -0.688929
 H         2.325446         1.977069        -0.794146
 H         1.889843         2.183312         1.001424
 H         4.572515         1.070861         0.795470
 H         3.663661        -1.343785         1.601283
