19
Iteration:   419charge 0 multiplicity 1
 C         4.545316        -1.149930        -1.381206
 C         3.474514        -0.386020        -0.627823
 O         2.202747        -0.450904        -1.144539
 C         1.442663         0.038870         0.021811
 C        -0.075945         0.162911        -0.375721
 C         2.177022         1.450808         0.016992
 C         3.632715         0.892278         0.200872
 C         3.348307        -0.509601         0.869837
 O         1.871850        -0.801488         1.165850
 H         4.005637        -1.835237        -2.000649
 H         5.148147        -0.492872        -1.982852
 H         5.126220        -1.837305        -0.789713
 H        -0.524869         0.578390         0.588406
 H         0.043964         0.850456        -1.231612
 H        -0.436821        -0.873776        -0.709094
 H         2.074201         1.884388        -0.960661
 H         2.060043         2.322354         0.809210
 H         4.319650         1.691958         0.457415
 H         4.140313        -0.998846         1.470594
