19
Iteration:  4677
 C         4.540627        -0.961489        -1.515345
 C         3.443687        -0.497023        -0.569670
 O         2.208199        -0.606956        -1.097179
 C         1.496737         0.111831        -0.107350
 C        -0.005638         0.219087        -0.305333
 C         2.286060         1.481044        -0.057070
 C         3.542811         0.732554         0.295114
 C         3.225349        -0.540661         1.021779
 O         1.875509        -0.668437         1.113185
 H         5.191729        -1.757199        -1.031641
 H         4.224246        -1.759708        -2.301727
 H         5.133420        -0.186478        -1.941326
 H        -0.551681         0.552865         0.592588
 H        -0.112702         0.886862        -1.172891
 H        -0.328041        -0.802095        -0.559015
 H         2.317132         1.925788        -0.985718
 H         1.922787         2.256351         0.600490
 H         4.473119         1.212458         0.372344
 H         3.720084        -1.222701         1.716934
