19
Iteration:   873charge 0 multiplicity 1
 C         4.550771        -1.183409        -1.497274
 C         3.526020        -0.443971        -0.596650
 O         2.230934        -0.294368        -1.261826
 C         1.502901         0.198413        -0.077600
 C         0.083789         0.447603        -0.451668
 C         2.258988         1.405341         0.401533
 C         3.518816         0.693542         0.566737
 C         3.196010        -0.739974         0.848980
 O         1.795804        -0.852748         0.904269
 H         4.138217        -2.058511        -1.993505
 H         4.886192        -0.557967        -2.270158
 H         5.498550        -1.484972        -1.009102
 H        -0.592285         0.835123         0.356763
 H         0.116220         1.147344        -1.293097
 H        -0.641057        -0.342668        -0.867408
 H         2.325615         2.165283        -0.381333
 H         1.785000         1.729581         1.368966
 H         4.401001         1.180390         0.825675
 H         3.694028        -1.544132         1.335988
