19
Iteration:  1015
 C         4.540241        -1.038176        -1.430748
 C         3.478505        -0.505173        -0.600798
 O         2.291379        -0.207365        -1.252503
 C         1.480873         0.266512        -0.128024
 C         0.082127         0.515054        -0.520402
 C         2.382910         1.324426         0.539513
 C         3.619318         0.515391         0.454795
 C         3.090364        -0.874086         0.858303
 O         1.674620        -0.824012         0.844788
 H         4.890744        -0.187205        -2.098460
 H         5.452518        -1.204989        -0.833920
 H         4.301416        -1.916441        -2.136908
 H        -0.519863         0.784305         0.355511
 H         0.057813         1.219284        -1.414089
 H        -0.360101        -0.437583        -0.861750
 H         2.387514         2.249920         0.056923
 H         1.958528         1.378423         1.516778
 H         4.488412         1.047404         0.963548
 H         3.477254        -1.632227         1.576546
