19
Iteration:  3230
 C         4.536929        -1.161677        -1.507209
 C         3.511836        -0.439292        -0.623811
 O         2.234249        -0.385128        -1.176634
 C         1.498546         0.248687        -0.162331
 C        -0.066724         0.271624        -0.454325
 C         2.305835         1.392404         0.367522
 C         3.628810         0.683061         0.401698
 C         3.212262        -0.665724         0.898537
 O         1.766155        -0.671058         0.984572
 H         5.464153        -0.695107        -1.788879
 H         5.059042        -1.979158        -0.993618
 H         4.121707        -1.524204        -2.451009
 H        -0.367526         0.473667         0.594235
 H        -0.133492         0.933164        -1.409362
 H        -0.501706        -0.784092        -0.618030
 H         2.062300         2.325154        -0.214938
 H         1.980921         1.578240         1.513135
 H         4.620876         1.118343         0.619043
 H         3.840024        -1.242440         1.459970
