19
Iteration:   327charge 0 multiplicity 1
 C         4.520195        -1.141967        -1.411368
 C         3.562499        -0.381990        -0.563819
 O         2.121161        -0.617476        -1.094408
 C         1.470231         0.087785        -0.072120
 C        -0.056365         0.103772        -0.388377
 C         2.171095         1.469601         0.003145
 C         3.554986         0.912644         0.233966
 C         3.345717        -0.475502         0.859224
 O         1.976272        -0.682857         1.176376
 H         5.302766        -0.578083        -1.984195
 H         5.085978        -1.891353        -0.812700
 H         3.923913        -1.693391        -2.171821
 H        -0.452738         0.761460         0.399572
 H        -0.133081         0.579095        -1.383555
 H        -0.612576        -0.826798        -0.428053
 H         2.010321         2.016709        -0.963924
 H         1.775807         2.094223         0.742809
 H         4.392104         1.520302         0.476661
 H         4.018291        -0.825698         1.577387
