19
Iteration:  2499
 C         4.609821        -1.031242        -1.411655
 C         3.468285        -0.435956        -0.547700
 O         2.317558        -0.125867        -1.248693
 C         1.451338         0.269361        -0.134806
 C        -0.002939         0.429758        -0.333765
 C         2.436124         1.419108         0.405946
 C         3.658263         0.462210         0.627440
 C         3.056677        -0.945140         0.792590
 O         1.648129        -0.842877         0.678195
 H         4.425547        -1.070023        -2.497677
 H         5.505115        -0.608891        -1.161442
 H         4.773174        -2.110138        -1.220644
 H        -0.420418         0.642915         0.685093
 H        -0.288954         1.186378        -1.090386
 H        -0.666306        -0.363169        -0.791017
 H         2.678166         1.983424        -0.489439
 H         2.027797         2.075207         1.170255
 H         4.670286         0.737574         1.001982
 H         3.396253        -1.739417         1.415356
