19
Iteration:  1325
 C         4.606501        -1.060099        -1.448277
 C         3.495370        -0.544105        -0.556369
 O         2.304381        -0.113769        -1.294290
 C         1.482248         0.287091        -0.168168
 C         0.114204         0.729517        -0.504814
 C         2.387751         1.260946         0.685260
 C         3.621789         0.412558         0.683807
 C         3.017621        -0.930624         0.750552
 O         1.600895        -0.923447         0.658234
 H         4.061272        -1.197390        -2.385808
 H         5.357481        -0.189115        -1.727313
 H         5.111024        -1.939459        -0.978613
 H        -0.388602         0.843709         0.478227
 H         0.315287         1.799133        -0.815088
 H        -0.474300         0.215519        -1.310273
 H         2.403763         2.159718         0.183762
 H         2.079820         1.313235         1.703195
 H         4.446325         0.764944         1.246086
 H         3.576556        -1.796829         1.144924
