19
Iteration:  4782charge 0 multiplicity 1
 C         4.503229        -1.362883        -1.436837
 C         3.523201        -0.388202        -0.573612
 O         2.208836        -0.423323        -1.188790
 C         1.488008         0.136777        -0.187376
 C         0.062622         0.029733        -0.288386
 C         2.184471         1.521867         0.199542
 C         3.603450         0.885446         0.332830
 C         3.257501        -0.455139         0.865773
 O         1.870826        -0.649956         0.993489
 H         5.473403        -0.891191        -1.453276
 H         4.408963        -2.401327        -1.128201
 H         4.138639        -1.336555        -2.455465
 H        -0.421090         0.661441         0.488929
 H        -0.304844         0.522684        -1.223927
 H        -0.450702        -0.909013        -0.288880
 H         2.012903         2.384521        -0.597685
 H         1.777107         1.647928         1.267796
 H         4.440723         1.378207         0.695297
 H         3.872830        -1.040769         1.554480
