19
Iteration:  1844charge 0 multiplicity 1
 C         4.559902        -0.995821        -1.570658
 C         3.464905        -0.532386        -0.642813
 O         2.372728        -0.108838        -1.217635
 C         1.516947         0.377858        -0.151748
 C         0.098093         0.480464        -0.592406
 C         2.511154         1.367824         0.728179
 C         3.601311         0.349316         0.713174
 C         2.948170        -0.998403         0.819136
 O         1.534244        -0.775238         0.708664
 H         4.066274        -0.902752        -2.617442
 H         5.333156        -0.232567        -1.514110
 H         5.070342        -1.991090        -1.370861
 H        -0.490011         0.753392         0.356049
 H        -0.042218         1.335273        -1.396295
 H        -0.140115        -0.558801        -0.969348
 H         2.965509         2.275543         0.430066
 H         2.150517         1.514437         1.733079
 H         4.569756         0.557745         1.223003
 H         3.276439        -1.940315         1.305538
