19
Iteration:  4467
 C         4.579365        -1.303808        -1.393741
 C         3.510032        -0.418124        -0.590505
 O         2.196546        -0.417689        -1.203244
 C         1.475180         0.119193        -0.130178
 C         0.034326         0.000933        -0.247351
 C         2.177740         1.494141         0.139872
 C         3.592835         0.896718         0.133300
 C         3.256775        -0.519327         0.919615
 O         1.872515        -0.595266         1.056039
 H         3.895703        -1.716929        -2.184965
 H         5.376679        -0.594146        -1.845787
 H         5.012041        -1.987170        -0.592566
 H        -0.390900         0.506572         0.641200
 H        -0.460736         0.549505        -1.077254
 H        -0.489724        -0.976989        -0.128523
 H         2.027887         2.246104        -0.588681
 H         1.819009         1.945644         1.055191
 H         4.468164         1.491010         0.348444
 H         3.813129        -1.238947         1.432805
