19
Iteration:  3810
 C         4.494580        -1.125465        -1.454269
 C         3.463492        -0.461843        -0.540967
 O         2.228736        -0.273037        -1.230330
 C         1.472117         0.190519         0.000833
 C         0.037616         0.139487        -0.469040
 C         2.364002         1.465184         0.187284
 C         3.621661         0.700050         0.465166
 C         3.186145        -0.709346         0.825354
 O         1.771464        -0.724675         1.053926
 H         5.528102        -0.843047        -1.221065
 H         4.004724        -2.172202        -1.646010
 H         4.432074        -0.617828        -2.462095
 H        -0.538058         0.477796         0.383071
 H        -0.002825         0.855030        -1.244606
 H        -0.354827        -0.818566        -0.716703
 H         2.493342         1.943262        -0.811165
 H         2.119963         2.152834         0.912264
 H         4.484165         1.246214         0.784308
 H         3.838451        -1.393096         1.360545
