19
Iteration:  3509charge 0 multiplicity 1
 C         4.510657        -1.163980        -1.465152
 C         3.469057        -0.451769        -0.608465
 O         2.204659        -0.306962        -1.192515
 C         1.423869         0.253461        -0.005737
 C         0.029488         0.167292        -0.449820
 C         2.340995         1.510250         0.178318
 C         3.644729         0.661677         0.419629
 C         3.201348        -0.700074         0.841626
 O         1.816650        -0.734167         1.053498
 H         5.472489        -0.744183        -1.143054
 H         4.348231        -2.232992        -1.063306
 H         4.190614        -0.934633        -2.586931
 H        -0.711164         0.457881         0.279817
 H         0.017878         0.796294        -1.356367
 H        -0.417728        -0.797677        -0.600995
 H         2.461183         2.121134        -0.780138
 H         2.009116         2.143325         1.023029
 H         4.638524         1.122702         0.697957
 H         3.892901        -1.344948         1.513896
