19
Iteration:  3795
 C         4.508100        -1.078969        -1.498183
 C         3.508466        -0.488068        -0.627839
 O         2.199670        -0.377531        -1.147188
 C         1.481013         0.217231        -0.124967
 C         0.002240         0.230402        -0.465556
 C         2.299491         1.457509         0.264966
 C         3.631600         0.681814         0.358058
 C         3.207295        -0.716435         0.919405
 O         1.799379        -0.679900         1.057185
 H         5.432339        -1.284914        -0.926145
 H         4.382423        -2.053726        -1.812975
 H         4.733349        -0.462039        -2.396283
 H        -0.710038         0.446916         0.362471
 H        -0.117339         0.888689        -1.347506
 H        -0.150442        -0.847556        -0.718723
 H         2.247840         2.232718        -0.519675
 H         1.931762         1.906217         1.275423
 H         4.639839         1.038442         0.595937
 H         3.650443        -1.336378         1.700469
