19
Iteration:  3228charge 0 multiplicity 1
 C         4.549037        -1.170060        -1.492353
 C         3.506169        -0.435164        -0.623648
 O         2.243425        -0.393559        -1.196230
 C         1.483885         0.241162        -0.162684
 C        -0.081210         0.282261        -0.444140
 C         2.316041         1.406299         0.386440
 C         3.624418         0.694329         0.390718
 C         3.221189        -0.661410         0.879574
 O         1.762104        -0.676215         0.995937
 H         5.428800        -0.567083        -1.787844
 H         4.994864        -2.004013        -1.008589
 H         4.128796        -1.611233        -2.459989
 H        -0.404919         0.426913         0.584697
 H        -0.118411         0.868306        -1.459053
 H        -0.491394        -0.722121        -0.647063
 H         2.100857         2.308138        -0.179902
 H         2.029100         1.579748         1.477604
 H         4.631248         1.166606         0.647300
 H         3.860904        -1.363625         1.509302
