19
Iteration:  4516
 C         4.597143        -1.010274        -1.495484
 C         3.452470        -0.463322        -0.591959
 O         2.184407        -0.528100        -1.094465
 C         1.444003         0.099306        -0.008755
 C         0.016467         0.121561        -0.353882
 C         2.264098         1.441995        -0.042579
 C         3.546992         0.734431         0.219708
 C         3.261259        -0.610744         0.923920
 O         1.861637        -0.593508         1.203616
 H         4.047170        -1.701344        -2.141323
 H         5.032423        -0.179218        -1.951158
 H         5.320200        -1.525872        -0.870158
 H        -0.691062         0.489518         0.422667
 H        -0.174837         0.768489        -1.234216
 H        -0.447497        -0.876100        -0.504985
 H         2.168549         1.948465        -1.085518
 H         2.014152         2.281879         0.624532
 H         4.585954         1.070581         0.147895
 H         4.103738        -0.842181         1.728337
