19
Iteration:  2946
 C         4.595345        -1.106103        -1.461580
 C         3.435341        -0.450790        -0.654898
 O         2.286934        -0.204752        -1.289643
 C         1.478532         0.239976        -0.053584
 C         0.033231         0.382727        -0.454922
 C         2.413871         1.404151         0.475557
 C         3.603253         0.573781         0.514588
 C         3.120764        -0.859463         0.796306
 O         1.675858        -0.765963         0.900940
 H         5.529819        -1.083752        -0.908545
 H         4.170277        -2.126588        -1.612521
 H         4.752920        -0.362878        -2.346263
 H        -0.573205         0.666505         0.375504
 H        -0.105852         0.915023        -1.428945
 H        -0.275289        -0.604977        -0.745656
 H         2.461367         2.223652        -0.265911
 H         2.145731         1.762138         1.527781
 H         4.552799         0.879064         1.019825
 H         3.455070        -1.695849         1.340270
