19
Iteration:   167
 C         4.508774        -1.091937        -1.441694
 C         3.454368        -0.498406        -0.596521
 O         2.156351        -0.568087        -1.082604
 C         1.415942         0.063006         0.081230
 C         0.013943        -0.162845        -0.302839
 C         2.248324         1.552762        -0.074457
 C         3.577830         0.879786         0.080039
 C         3.308827        -0.427934         0.889654
 O         1.931742        -0.490376         1.203799
 H         4.048389        -1.734192        -2.153080
 H         5.110868        -0.295177        -1.881785
 H         5.130344        -1.716925        -0.793251
 H        -0.761423         0.256018         0.318603
 H        -0.027488         0.283795        -1.310943
 H        -0.104019        -1.226874        -0.453199
 H         1.943712         2.011402        -1.041313
 H         2.023011         2.307996         0.654932
 H         4.508333         1.431794         0.246751
 H         4.068140        -0.903553         1.543541
