19
Iteration:  1104charge 0 multiplicity 1
 C         4.628694        -1.004156        -1.421183
 C         3.517025        -0.389175        -0.646517
 O         2.245427        -0.239138        -1.283271
 C         1.483567         0.171716        -0.072859
 C         0.048661         0.710002        -0.556371
 C         2.330655         1.309467         0.549300
 C         3.630786         0.504495         0.625239
 C         3.089118        -0.935339         0.755641
 O         1.684374        -0.930669         0.860911
 H         4.142137        -1.943986        -1.840975
 H         4.777461        -0.366069        -2.232650
 H         5.519220        -1.294075        -0.804611
 H        -0.713089         0.916539         0.210158
 H         0.207741         1.580208        -1.275626
 H        -0.427481        -0.084364        -1.132366
 H         2.472861         2.166011        -0.034421
 H         1.807540         1.509544         1.446113
 H         4.620530         0.723554         0.956365
 H         3.656398        -1.652168         1.342417
