19
Iteration:  3980
 C         4.556792        -1.237625        -1.409190
 C         3.484427        -0.401767        -0.603301
 O         2.197621        -0.264697        -1.219088
 C         1.448762         0.132971        -0.005621
 C         0.010170         0.258416        -0.448787
 C         2.284298         1.450780         0.221048
 C         3.543801         0.789950         0.375430
 C         3.298180        -0.670761         0.798597
 O         1.813543        -0.811948         1.074924
 H         4.635087        -2.252193        -0.964000
 H         4.228464        -1.242328        -2.356006
 H         5.471571        -0.656241        -1.276587
 H        -0.745431         0.529644         0.373331
 H         0.046952         0.891620        -1.337125
 H        -0.419058        -0.759281        -0.624353
 H         2.290210         1.978016        -0.736840
 H         1.993054         2.153691         1.047185
 H         4.471420         1.389669         0.395788
 H         4.015902        -1.419441         1.332412
