19
Iteration:  4059
 C         4.585221        -0.982053        -1.423126
 C         3.485720        -0.475146        -0.644775
 O         2.091496        -0.473060        -1.202834
 C         1.457767         0.179125         0.015643
 C        -0.014045         0.207606        -0.411850
 C         2.387937         1.454407         0.101901
 C         3.685012         0.695149         0.357882
 C         3.215421        -0.660398         0.902938
 O         1.759857        -0.706793         1.118096
 H         4.230821        -1.352842        -2.400706
 H         5.331097        -0.282488        -1.585985
 H         5.175689        -1.703403        -0.866584
 H        -0.589931         0.671220         0.471872
 H        -0.155402         0.805562        -1.373644
 H        -0.271518        -0.858573        -0.640379
 H         2.297337         1.809543        -1.019629
 H         1.970535         2.259744         0.686241
 H         4.660764         1.110955         0.638572
 H         3.771104        -1.360897         1.353025
