19
Iteration:  1403charge 0 multiplicity 1
 C         4.614271        -1.002208        -1.494810
 C         3.494496        -0.525513        -0.587659
 O         2.323182        -0.053719        -1.274390
 C         1.526355         0.359748        -0.125617
 C         0.117450         0.587109        -0.607056
 C         2.488822         1.284103         0.750186
 C         3.587705         0.296897         0.724036
 C         2.900413        -1.129671         0.702932
 O         1.574505        -0.716761         0.750577
 H         4.914408        -2.055451        -1.571693
 H         4.264665        -0.508010        -2.542679
 H         5.521372        -0.343610        -1.315884
 H        -0.429255         0.995532         0.272114
 H         0.066260         1.310691        -1.520906
 H        -0.221681        -0.362843        -0.987238
 H         2.764192         2.214722         0.324784
 H         1.939004         1.444511         1.667072
 H         4.537294         0.538051         1.263005
 H         3.204850        -2.100193         1.121915
