19
Iteration:  1051charge 0 multiplicity 1
 C         4.619578        -1.093535        -1.424200
 C         3.537901        -0.396950        -0.594169
 O         2.301087        -0.062004        -1.296369
 C         1.490077         0.315996        -0.061079
 C        -0.052060         0.335869        -0.412770
 C         2.475500         1.348370         0.407671
 C         3.618548         0.454625         0.684457
 C         3.011969        -0.966058         0.746201
 O         1.643152        -0.769160         0.751988
 H         4.427958        -0.983561        -2.511833
 H         5.500587        -0.586870        -1.210368
 H         4.673049        -2.139758        -1.112519
 H        -0.618722         0.762543         0.457949
 H        -0.352181         1.107301        -1.221501
 H        -0.406525        -0.670712        -0.627034
 H         2.824050         2.046707        -0.428157
 H         2.173893         2.036112         1.354452
 H         4.369485         0.768044         1.353243
 H         3.564207        -1.766629         1.172207
