19
Iteration:  3221
 C         4.578374        -1.176439        -1.462935
 C         3.509804        -0.451990        -0.623636
 O         2.243092        -0.395743        -1.254770
 C         1.436429         0.185731        -0.139819
 C        -0.058000         0.294449        -0.420359
 C         2.325286         1.448258         0.410946
 C         3.641440         0.734548         0.360885
 C         3.239897        -0.686506         0.842232
 O         1.768212        -0.698461         1.018281
 H         5.223856        -0.366723        -1.747064
 H         4.921620        -2.095099        -0.900816
 H         4.118903        -1.629949        -2.306692
 H        -0.689084         0.631208         0.446609
 H        -0.291662         0.886960        -1.313124
 H        -0.385160        -0.744994        -0.761061
 H         2.324420         2.400819        -0.199429
 H         2.028279         1.649660         1.506554
 H         4.525040         1.234689         0.682559
 H         3.652059        -1.385550         1.445391
