19
Iteration:  1502charge 0 multiplicity 1
 C         4.603086        -1.085952        -1.300118
 C         3.472067        -0.460372        -0.653457
 O         2.330044         0.064578        -1.219363
 C         1.487344         0.401771        -0.056622
 C         0.026854         0.645901        -0.523591
 C         2.630320         1.367950         0.611813
 C         3.568999         0.244507         0.740833
 C         2.929386        -1.071548         0.609908
 O         1.530551        -0.933459         0.600694
 H         5.491657        -0.632478        -0.782909
 H         4.563669        -2.259928        -1.533539
 H         4.869247        -0.735700        -2.364662
 H        -0.522605         0.558975         0.456837
 H        -0.108430         1.636991        -1.016973
 H        -0.255303        -0.298329        -1.072715
 H         2.751075         2.064830        -0.084655
 H         2.606742         1.895468         1.544034
 H         4.483986         0.364879         1.289155
 H         3.406356        -1.946467         0.986118
