19
Iteration:   439charge 0 multiplicity 1
 C         4.545819        -1.191267        -1.441994
 C         3.495221        -0.429732        -0.615991
 O         2.137283        -0.517740        -1.110835
 C         1.452464         0.109179        -0.057758
 C        -0.054729         0.131239        -0.410461
 C         2.188831         1.504013         0.148592
 C         3.567764         0.856193         0.293198
 C         3.313023        -0.512465         0.878685
 O         1.972243        -0.670911         1.064516
 H         4.199531        -2.202171        -1.577864
 H         4.731630        -0.593588        -2.338741
 H         5.487824        -1.240114        -0.819607
 H        -0.669165         0.647117         0.370031
 H        -0.116103         0.741452        -1.360039
 H        -0.275643        -0.950833        -0.590472
 H         2.090042         2.038658        -0.778945
 H         1.771245         1.935697         1.069034
 H         4.579113         1.326430         0.345614
 H         4.034872        -1.041741         1.577265
