19
Iteration:  1344
 C         4.612843        -1.086424        -1.438258
 C         3.524644        -0.329545        -0.573956
 O         2.323102        -0.042483        -1.284688
 C         1.510157         0.239747        -0.127349
 C         0.109743         0.825834        -0.452190
 C         2.366950         1.302749         0.566196
 C         3.572672         0.385024         0.767462
 C         3.039947        -1.083326         0.703019
 O         1.616128        -1.022910         0.662181
 H         4.027423        -1.876519        -2.071690
 H         5.228973        -0.512878        -2.147416
 H         5.146897        -1.598399        -0.607029
 H        -0.554102         0.856540         0.409683
 H         0.163931         1.752465        -0.884173
 H        -0.524323         0.109381        -1.032692
 H         2.553091         2.111102        -0.173485
 H         1.737454         1.664219         1.364199
 H         4.564382         0.601790         1.161922
 H         3.469243        -1.863985         1.269791
