19
Iteration:  3147
 C         4.613660        -1.024234        -1.547039
 C         3.472473        -0.544702        -0.558529
 O         2.246269        -0.409084        -1.219560
 C         1.488458         0.290668        -0.201531
 C         0.040068         0.350568        -0.373604
 C         2.340710         1.391757         0.303604
 C         3.620499         0.642087         0.431578
 C         3.120580        -0.739209         0.915810
 O         1.713445        -0.765480         0.967885
 H         4.266874        -0.708366        -2.572285
 H         5.543826        -0.607332        -1.056234
 H         4.718226        -2.073029        -1.391068
 H        -0.278030         0.884395         0.528982
 H        -0.337099         1.083259        -1.015279
 H        -0.365174        -0.661446        -0.510259
 H         2.334132         2.238199        -0.352741
 H         1.914208         1.629417         1.191092
 H         4.518298         1.178595         0.706000
 H         3.655261        -1.332111         1.530307
