19
Iteration:  3907charge 0 multiplicity 1
 C         4.602198        -0.991119        -1.451578
 C         3.462590        -0.499210        -0.603174
 O         2.229638        -0.418874        -1.206040
 C         1.461224         0.198150        -0.043365
 C         0.014661         0.311239        -0.349172
 C         2.352791         1.413590         0.152893
 C         3.598672         0.651340         0.412127
 C         3.166093        -0.724016         0.884926
 O         1.749023        -0.756280         0.989698
 H         5.606310        -0.943405        -0.911226
 H         4.287402        -2.042240        -1.750557
 H         4.600071        -0.321260        -2.348695
 H        -0.590865         0.659141         0.548575
 H        -0.012719         1.014549        -1.165133
 H        -0.497153        -0.628423        -0.565870
 H         2.504411         1.906670        -0.887449
 H         2.033661         2.165039         0.878642
 H         4.560398         1.255992         0.560407
 H         3.633671        -1.342188         1.753293
