19
Iteration:   728
 C         4.529800        -1.073546        -1.414219
 C         3.422081        -0.457694        -0.579018
 O         2.222370        -0.290092        -1.248989
 C         1.434639         0.250364        -0.050086
 C         0.000630         0.159430        -0.412210
 C         2.363920         1.505002         0.230503
 C         3.608961         0.631446         0.423925
 C         3.247568        -0.723011         0.853799
 O         1.804645        -0.746186         1.001580
 H         5.101319        -1.728768        -0.777785
 H         4.066165        -1.721738        -2.211968
 H         5.142963        -0.433029        -1.964166
 H        -0.770698         0.483288         0.338539
 H        -0.090437         0.848719        -1.354659
 H        -0.399912        -0.809549        -0.761289
 H         2.418477         2.196663        -0.665324
 H         2.087265         1.937110         1.139735
 H         4.579320         0.963576         0.823762
 H         3.826492        -1.406734         1.442008
