19
Iteration:  4517charge 0 multiplicity 1
 C         4.587884        -1.001969        -1.494706
 C         3.451091        -0.464267        -0.598327
 O         2.181916        -0.531706        -1.100001
 C         1.444949         0.100015        -0.004638
 C         0.014174         0.130604        -0.359762
 C         2.267752         1.438131        -0.042110
 C         3.542953         0.736287         0.215758
 C         3.268660        -0.617319         0.931272
 O         1.863183        -0.593352         1.206830
 H         4.089663        -1.740219        -2.131704
 H         5.021697        -0.168808        -1.920436
 H         5.358341        -1.539266        -0.864644
 H        -0.682093         0.474377         0.396503
 H        -0.164123         0.774386        -1.211949
 H        -0.422158        -0.880485        -0.477499
 H         2.163170         1.959680        -1.107003
 H         1.996163         2.268811         0.630882
 H         4.574527         1.060975         0.166722
 H         4.097823        -0.822087         1.733501
