19
Iteration:  2410charge 0 multiplicity 1
 C         4.552103        -0.946757        -1.598099
 C         3.488608        -0.580423        -0.585431
 O         2.337124        -0.167442        -1.249822
 C         1.484974         0.271097        -0.117628
 C         0.037712         0.529228        -0.578858
 C         2.398925         1.323613         0.506842
 C         3.649953         0.453654         0.695857
 C         3.063810        -0.930808         0.932409
 O         1.611851        -0.800524         0.838764
 H         4.175799        -1.847770        -2.090047
 H         4.597795        -0.119317        -2.195934
 H         5.540081        -1.243224        -1.205763
 H        -0.526791         0.806765         0.357317
 H         0.085771         1.331911        -1.342306
 H        -0.284386        -0.476804        -1.081715
 H         2.661117         2.140911        -0.083950
 H         2.034399         1.700190         1.424942
 H         4.608553         0.852017         0.988356
 H         3.491283        -1.845283         1.423832
