19
Iteration:  2897charge 0 multiplicity 1
 C         4.619107        -1.075875        -1.375044
 C         3.520956        -0.412004        -0.620068
 O         2.288230        -0.226627        -1.361793
 C         1.437468         0.185392        -0.045804
 C         0.049112         0.494985        -0.307972
 C         2.308537         1.353981         0.396436
 C         3.633322         0.568055         0.553761
 C         3.110239        -0.865775         0.735472
 O         1.669362        -0.843707         0.824358
 H         5.544695        -0.458625        -1.227369
 H         4.745224        -2.081191        -0.937075
 H         4.275154        -1.054169        -2.387190
 H        -0.462318         0.789926         0.650120
 H         0.142270         1.224919        -1.128808
 H        -0.551275        -0.226938        -0.973621
 H         2.415985         2.057769        -0.463187
 H         2.022082         1.829944         1.355584
 H         4.534660         0.898176         0.941493
 H         3.548724        -1.594495         1.397414
