19
Iteration:  4202
 C         4.527194        -1.046264        -1.436249
 C         3.505721        -0.437343        -0.597287
 O         2.199589        -0.489174        -1.137854
 C         1.473609         0.111766        -0.071896
 C        -0.002596         0.251644        -0.351999
 C         2.264060         1.421425         0.068783
 C         3.594375         0.746476         0.308435
 C         3.208167        -0.595019         0.907410
 O         1.881196        -0.730447         1.092228
 H         5.382092        -0.337221        -1.689960
 H         4.824796        -2.010874        -1.024555
 H         4.051850        -1.367202        -2.438578
 H        -0.377389         0.807110         0.537985
 H        -0.236415         0.912593        -1.248454
 H        -0.560920        -0.672197        -0.630631
 H         2.176160         1.830755        -1.009659
 H         1.835353         2.186584         0.696688
 H         4.618940         1.113841         0.554070
 H         3.834699        -1.138417         1.746028
