19
Iteration:  4054
 C         4.619288        -1.012793        -1.414722
 C         3.423428        -0.490365        -0.653766
 O         2.095064        -0.421217        -1.190358
 C         1.433951         0.177568         0.014866
 C        -0.005503         0.186581        -0.403150
 C         2.385439         1.428008         0.061453
 C         3.675407         0.674918         0.390102
 C         3.247492        -0.649032         0.857060
 O         1.755513        -0.690538         1.097856
 H         4.162128        -1.416866        -2.354112
 H         5.480041        -0.064627        -1.685194
 H         5.151006        -1.723023        -0.704589
 H        -0.577246         0.548976         0.427301
 H        -0.136869         0.795479        -1.257813
 H        -0.406260        -0.818779        -0.505452
 H         2.443444         1.771494        -0.915901
 H         2.126932         2.287949         0.736981
 H         4.552185         1.290777         0.729891
 H         3.917841        -1.416541         1.472232
