19
Iteration:  1635
 C         4.665176        -1.027038        -1.408985
 C         3.539392        -0.553984        -0.537066
 O         2.391784        -0.036811        -1.363510
 C         1.541560         0.378945        -0.242902
 C         0.092473         0.691875        -0.401657
 C         2.414484         1.331811         0.655481
 C         3.543272         0.304947         0.696349
 C         2.920319        -1.047350         0.712608
 O         1.539961        -0.883349         0.666055
 H         5.406716        -1.806026        -0.928070
 H         4.170122        -1.595657        -2.282096
 H         5.218810        -0.149370        -1.879216
 H        -0.229847         1.001719         0.618455
 H        -0.202035         1.537112        -1.069177
 H        -0.487652        -0.199930        -0.809519
 H         2.720810         2.262332         0.381050
 H         1.925784         1.298018         1.617118
 H         4.483492         0.614695         1.213648
 H         3.167232        -1.940957         1.272148
