19
Iteration:  1868
 C         4.631737        -1.010015        -1.462408
 C         3.504943        -0.525803        -0.602757
 O         2.281482        -0.068495        -1.284273
 C         1.476353         0.311573        -0.149158
 C         0.073205         0.664547        -0.521872
 C         2.371423         1.253934         0.660069
 C         3.702796         0.405374         0.646533
 C         2.998857        -1.024072         0.736178
 O         1.574020        -0.868624         0.783498
 H         4.140973        -1.046135        -2.504161
 H         5.575369        -0.328136        -1.443012
 H         4.953009        -2.043099        -1.123343
 H        -0.703323         0.940010         0.253670
 H         0.260799         1.482094        -1.242450
 H        -0.179510        -0.249233        -1.199369
 H         2.496328         2.256966         0.274532
 H         2.153155         1.431568         1.682431
 H         4.758452         0.595024         0.925521
 H         3.420349        -1.704217         1.381431
