19
Iteration:  2596
 C         4.591879        -1.043571        -1.415923
 C         3.522631        -0.441645        -0.555857
 O         2.311285        -0.177335        -1.344428
 C         1.466295         0.275318        -0.062203
 C         0.016041         0.390094        -0.383909
 C         2.405026         1.387185         0.405506
 C         3.636622         0.507343         0.659680
 C         3.064666        -0.890478         0.754668
 O         1.674220        -0.800112         0.803744
 H         5.348320        -0.397339        -1.930744
 H         5.043527        -1.902957        -0.956443
 H         4.104648        -1.367576        -2.391498
 H        -0.671135         0.841167         0.409205
 H        -0.226795         1.077345        -1.282743
 H        -0.550972        -0.588279        -0.684512
 H         2.346937         2.066315        -0.383486
 H         2.021492         1.870394         1.267433
 H         4.581146         0.851752         1.148351
 H         3.483996        -1.771191         1.306651
