19
Iteration:    14
 C         4.494392        -1.071748        -1.478568
 C         3.474545        -0.360620        -0.627693
 O         2.108684        -0.603034        -1.144943
 C         1.488058         0.057849        -0.018511
 C         0.103498        -0.121282        -0.141121
 C         2.183283         1.423855        -0.221931
 C         3.591659         0.986058         0.225149
 C         3.324073        -0.389019         0.944989
 O         1.887834        -0.557716         1.235107
 H         5.556603        -0.808760        -1.216667
 H         4.303541        -2.168045        -1.147521
 H         4.318561        -1.031954        -2.622863
 H        -0.400222         0.283764         0.745713
 H        -0.297600         0.299165        -0.999530
 H        -0.050295        -1.208558        -0.129208
 H         2.183928         1.459168        -1.349383
 H         1.716381         2.212618         0.251605
 H         4.556723         1.439187        -0.032533
 H         3.938874        -0.948910         1.564323
