19
Iteration:  2219
 C         4.672352        -1.038070        -1.437960
 C         3.527444        -0.545148        -0.567879
 O         2.273725        -0.126825        -1.294982
 C         1.487598         0.216313        -0.118459
 C         0.096448         0.730004        -0.412980
 C         2.336961         1.328148         0.559451
 C         3.610926         0.503224         0.642615
 C         3.065939        -0.995673         0.735690
 O         1.552511        -0.931016         0.707673
 H         5.374096        -0.283070        -1.691885
 H         5.186847        -1.899292        -0.860853
 H         4.376452        -1.526674        -2.347657
 H        -0.414786         0.996918         0.581144
 H         0.179127         1.665825        -1.182360
 H        -0.443118        -0.087171        -0.965104
 H         2.468317         2.150063        -0.238793
 H         1.981392         1.700068         1.578724
 H         4.570497         0.839474         1.027091
 H         3.604300        -1.773793         1.359706
