19
Iteration:  1835charge 0 multiplicity 1
 C         4.529228        -0.958453        -1.565944
 C         3.514389        -0.557169        -0.515216
 O         2.330214        -0.054508        -1.283348
 C         1.555155         0.395762        -0.159405
 C         0.112731         0.492539        -0.544312
 C         2.463494         1.383747         0.668265
 C         3.631445         0.294335         0.815571
 C         2.949090        -1.045332         0.742589
 O         1.562052        -0.778667         0.730457
 H         4.043140        -1.040573        -2.618758
 H         5.397836        -0.215943        -1.656233
 H         4.874373        -2.021090        -1.360142
 H        -0.709390         0.692760         0.183687
 H         0.006594         1.143762        -1.438070
 H        -0.116826        -0.524269        -1.012734
 H         2.827529         2.193316         0.054288
 H         2.081735         1.617588         1.625320
 H         4.669565         0.537079         1.123648
 H         3.262526        -1.862300         1.323268
