19
Iteration:  4926charge 0 multiplicity 1
 C         4.547630        -1.272460        -1.427396
 C         3.494903        -0.441861        -0.634338
 O         2.109258        -0.425542        -1.239513
 C         1.485608         0.196990        -0.067691
 C         0.073810        -0.061280        -0.325126
 C         2.202435         1.511239         0.190298
 C         3.628164         0.809466         0.240632
 C         3.281951        -0.512195         0.909898
 O         1.850411        -0.506188         1.062199
 H         5.312991        -1.600493        -0.735696
 H         3.807177        -2.088335        -1.585727
 H         5.006442        -0.866361        -2.259589
 H        -0.686467         0.332848         0.303571
 H        -0.150675         0.176195        -1.331806
 H        -0.080856        -1.154331        -0.388718
 H         2.248556         2.318534        -0.629481
 H         1.860151         1.691854         1.286239
 H         4.539672         1.490457         0.430712
 H         3.899104        -0.890435         1.789767
