19
Iteration:  3859charge 0 multiplicity 1
 C         4.637681        -1.209580        -1.405018
 C         3.495051        -0.470472        -0.629175
 O         2.223244        -0.405561        -1.322193
 C         1.491248         0.140129        -0.151604
 C        -0.010872         0.334078        -0.320781
 C         2.223165         1.447163         0.396574
 C         3.655998         0.740175         0.323880
 C         3.188560        -0.670325         0.855042
 O         1.771800        -0.661645         0.964110
 H         5.517407        -0.539313        -1.196152
 H         4.663350        -2.219920        -1.100708
 H         4.516384        -1.144314        -2.497799
 H        -0.593858         0.684067         0.590599
 H        -0.147275         0.931004        -1.307340
 H        -0.474252        -0.722256        -0.439913
 H         1.938748         2.366557        -0.094886
 H         1.852296         1.455357         1.502545
 H         4.604534         1.113683         0.657965
 H         3.718482        -1.332890         1.458035
