19
Iteration:  2883charge 0 multiplicity 1
 C         4.640485        -1.043553        -1.462711
 C         3.533982        -0.400742        -0.592609
 O         2.258418        -0.203462        -1.182419
 C         1.502257         0.143987        -0.142368
 C         0.022135         0.534323        -0.407094
 C         2.360693         1.383587         0.335244
 C         3.606432         0.569154         0.560132
 C         3.074943        -0.889562         0.836881
 O         1.653196        -0.896267         0.832728
 H         5.553717        -0.482331        -1.627539
 H         4.953468        -2.091547        -1.120500
 H         4.350016        -1.204246        -2.491672
 H        -0.464890         0.826197         0.568674
 H        -0.057028         1.532655        -0.868484
 H        -0.504334        -0.402964        -0.657382
 H         2.362171         2.041137        -0.473177
 H         1.894205         1.900380         1.100555
 H         4.581817         0.862387         0.988739
 H         3.534851        -1.706933         1.322104
