19
Iteration:  2122
 C         4.473088        -1.038187        -1.509133
 C         3.543359        -0.382606        -0.554799
 O         2.284240        -0.103003        -1.156746
 C         1.529192         0.278625        -0.120358
 C         0.128653         0.701047        -0.638981
 C         2.377691         1.321531         0.552916
 C         3.549459         0.434864         0.723225
 C         3.099199        -1.091823         0.774806
 O         1.643305        -0.958241         0.787487
 H         4.043936        -1.011828        -2.468792
 H         5.506642        -0.586840        -1.709544
 H         4.629339        -2.064118        -1.300479
 H        -0.516496         1.031462         0.222260
 H         0.482689         1.614979        -1.285117
 H        -0.425166         0.047483        -1.323988
 H         2.663676         1.939764        -0.266955
 H         2.024744         1.706565         1.442007
 H         4.415823         0.787551         1.288504
 H         3.605994        -1.922445         1.260052
