19
Iteration:   457
 C         4.525015        -1.114867        -1.444535
 C         3.522727        -0.482644        -0.615439
 O         2.226932        -0.514611        -1.209298
 C         1.474483         0.166000        -0.132987
 C         0.066561         0.035372        -0.329572
 C         2.229961         1.432437         0.194580
 C         3.579383         0.811154         0.196272
 C         3.268916        -0.563757         0.904484
 O         1.785452        -0.528211         1.117526
 H         4.406695        -2.228704        -1.256246
 H         4.336276        -0.912556        -2.531341
 H         5.529185        -0.725080        -1.157352
 H        -0.437368         0.582829         0.410681
 H        -0.362448         0.556477        -1.168478
 H        -0.302243        -0.938910        -0.316749
 H         2.103299         2.329959        -0.501953
 H         1.953002         1.635356         1.194081
 H         4.497239         1.385168         0.475745
 H         3.761190        -1.152260         1.725211
