19
Iteration:   503charge 0 multiplicity 1
 C         4.579050        -1.037172        -1.388748
 C         3.448098        -0.431787        -0.630226
 O         2.174036        -0.465410        -1.190097
 C         1.451046         0.113924        -0.067700
 C         0.057520         0.158906        -0.265233
 C         2.264210         1.450666         0.041120
 C         3.591815         0.797758         0.364590
 C         3.204031        -0.660866         0.849244
 O         1.855740        -0.674846         1.072873
 H         5.231607        -1.680627        -0.763859
 H         4.272119        -1.809357        -2.144671
 H         5.175704        -0.230354        -1.951005
 H        -0.573925         0.694488         0.410255
 H        -0.282318         0.549177        -1.209072
 H        -0.307366        -0.854443        -0.290123
 H         2.252661         1.724474        -1.024618
 H         1.899674         2.281125         0.598666
 H         4.522256         1.327732         0.569670
 H         3.867662        -1.207085         1.530365
