19
Iteration:  4371
 C         4.537899        -0.990368        -1.477169
 C         3.443684        -0.512851        -0.571980
 O         2.174772        -0.569118        -1.075837
 C         1.473401         0.183679        -0.070561
 C         0.047762         0.188447        -0.350510
 C         2.317515         1.395130        -0.000017
 C         3.580670         0.778719         0.298484
 C         3.261560        -0.579652         0.901667
 O         1.852751        -0.638080         1.122231
 H         4.611329        -2.080411        -1.443064
 H         4.111016        -0.898084        -2.511150
 H         5.345847        -0.386471        -1.357817
 H        -0.612293         0.559948         0.496733
 H        -0.397019         0.630377        -1.309826
 H        -0.289447        -0.906075        -0.516691
 H         2.230282         1.814204        -0.985383
 H         1.900878         2.282557         0.593633
 H         4.526820         1.197092         0.621579
 H         3.871375        -1.209493         1.603491
