19
Iteration:  2158
 C         4.658169        -1.071248        -1.511431
 C         3.518682        -0.537903        -0.575613
 O         2.307760        -0.052563        -1.217391
 C         1.512946         0.364630        -0.167913
 C         0.109710         0.553196        -0.539280
 C         2.416075         1.310667         0.690055
 C         3.589748         0.392577         0.543606
 C         2.984384        -1.018854         0.737443
 O         1.545897        -0.773485         0.775200
 H         4.486267        -0.763634        -2.616192
 H         5.578175        -0.679920        -1.089298
 H         4.665958        -2.201957        -1.409277
 H        -0.535414         0.732488         0.283012
 H        -0.073451         1.331753        -1.176147
 H        -0.136659        -0.359352        -1.000988
 H         2.473352         2.329398         0.405789
 H         2.243077         1.367327         1.756708
 H         4.501341         0.657700         1.050356
 H         3.339976        -1.859274         1.417089
