19
Iteration:  3352charge 0 multiplicity 1
 C         4.443357        -1.141928        -1.451106
 C         3.491495        -0.425904        -0.593005
 O         2.223437        -0.330920        -1.203618
 C         1.487613         0.149637        -0.039305
 C        -0.040805         0.231601        -0.372485
 C         2.307859         1.437550         0.185741
 C         3.611660         0.739654         0.419094
 C         3.240732        -0.691426         0.812068
 O         1.830720        -0.728566         0.981977
 H         5.205969        -1.672958        -0.847345
 H         4.235423        -2.126288        -1.892031
 H         4.999958        -0.503108        -2.029794
 H        -0.457664         0.781820         0.557647
 H         0.095041         0.938410        -1.209764
 H        -0.346944        -0.871277        -0.518699
 H         2.197300         1.962996        -0.858688
 H         2.001888         2.231697         0.985576
 H         4.495508         1.198755         0.916203
 H         3.886392        -1.327800         1.589349
