19
Iteration:  4758charge 0 multiplicity 1
 C         4.539201        -1.302587        -1.335024
 C         3.500745        -0.354126        -0.636007
 O         2.265471        -0.380944        -1.254507
 C         1.415443         0.145221        -0.021518
 C        -0.057842         0.131775        -0.313660
 C         2.174396         1.469905         0.185074
 C         3.590474         0.801647         0.253356
 C         3.373935        -0.521792         0.843983
 O         1.865026        -0.692531         1.040542
 H         5.510831        -0.839727        -1.244860
 H         4.398453        -2.237548        -0.910947
 H         4.280001        -1.456531        -2.429141
 H        -0.748185         0.646250         0.403516
 H        -0.375174         0.497165        -1.339027
 H        -0.458795        -0.916938        -0.325551
 H         2.043919         2.088090        -0.731461
 H         1.941024         1.887336         1.144339
 H         4.478633         1.471459         0.312966
 H         4.096637        -1.149628         1.509624
