19
Iteration:   946charge 0 multiplicity 1
 C         4.632416        -0.988518        -1.449793
 C         3.493738        -0.505639        -0.565975
 O         2.279455        -0.245365        -1.281982
 C         1.465932         0.293597        -0.154613
 C         0.015932         0.373312        -0.401497
 C         2.433126         1.417323         0.413051
 C         3.649386         0.525186         0.521772
 C         3.037160        -0.884778         0.835776
 O         1.625801        -0.767758         0.888166
 H         5.641679        -0.988426        -0.943340
 H         4.497149        -2.105199        -1.901685
 H         4.790692        -0.426083        -2.410214
 H        -0.653451         0.501630         0.467469
 H        -0.244660         1.055005        -1.174347
 H        -0.328993        -0.587727        -0.848089
 H         2.628571         2.228876        -0.310016
 H         2.292513         1.787081         1.381464
 H         4.529085         0.944552         0.890338
 H         3.310076        -1.714771         1.441197
