19
Iteration:  2132
 C         4.465752        -1.023100        -1.506297
 C         3.482805        -0.430165        -0.512877
 O         2.258117        -0.095197        -1.264479
 C         1.452113         0.211450        -0.109581
 C         0.157143         0.672321        -0.616903
 C         2.436085         1.317068         0.609881
 C         3.638195         0.401640         0.737704
 C         3.044547        -0.967226         0.795900
 O         1.693805        -0.938200         0.763329
 H         4.029931        -0.957160        -2.434413
 H         5.486174        -0.581429        -1.375717
 H         4.591143        -2.037099        -1.254108
 H        -0.731961         1.060573        -0.055843
 H         0.386807         1.570606        -1.361777
 H        -0.176120        -0.173044        -1.306611
 H         2.546880         2.196975        -0.042899
 H         2.203503         1.740394         1.558046
 H         4.626129         0.697503         1.111852
 H         3.367765        -1.922668         1.085417
