19
Iteration:  1810
 C         4.537693        -1.003526        -1.472652
 C         3.491996        -0.421456        -0.568323
 O         2.395408         0.025556        -1.219036
 C         1.479666         0.237919        -0.117470
 C         0.107309         0.608676        -0.518915
 C         2.440121         1.318307         0.548973
 C         3.604909         0.335506         0.705261
 C         3.000184        -1.015350         0.737709
 O         1.546686        -0.945043         0.742620
 H         4.100446        -1.350435        -2.457759
 H         5.283871        -0.280921        -1.707015
 H         4.990407        -1.924636        -1.018042
 H        -0.519296         1.022928         0.316168
 H         0.239787         1.416750        -1.373008
 H        -0.507249        -0.167199        -0.977263
 H         2.848384         2.007837        -0.140620
 H         2.286399         1.791511         1.525640
 H         4.464660         0.718974         1.234411
 H         3.474732        -1.995606         1.120785
