19
Iteration:   564
 C         4.550081        -1.101087        -1.420479
 C         3.481426        -0.378456        -0.607616
 O         2.189739        -0.423374        -1.179777
 C         1.490494         0.101716        -0.123823
 C        -0.036020         0.153382        -0.409155
 C         2.274438         1.474216         0.181551
 C         3.573605         0.773940         0.305852
 C         3.240930        -0.663613         0.870174
 O         1.868551        -0.704038         1.121267
 H         5.283337        -0.339035        -1.648316
 H         4.852195        -1.971112        -0.846728
 H         4.133578        -1.426705        -2.312496
 H        -0.538240         0.515211         0.493528
 H        -0.102638         0.864611        -1.286150
 H        -0.393720        -0.819580        -0.728146
 H         2.247464         2.118953        -0.771480
 H         2.094651         2.040010         1.102800
 H         4.498966         1.388980         0.501155
 H         3.777920        -1.406746         1.559022
