19
Iteration:   739charge 0 multiplicity 1
 C         4.465114        -1.091054        -1.369834
 C         3.492551        -0.428421        -0.626692
 O         2.195642        -0.277441        -1.253060
 C         1.475778         0.193655        -0.124976
 C        -0.058627         0.262780        -0.459658
 C         2.330885         1.391365         0.279086
 C         3.629992         0.699407         0.420961
 C         3.212366        -0.748897         0.850849
 O         1.882232        -0.795909         1.045970
 H         5.220493        -1.397809        -0.673262
 H         3.957260        -1.996576        -1.785912
 H         4.940188        -0.429892        -2.040647
 H        -0.684107         0.630668         0.403143
 H        -0.106244         1.018317        -1.342844
 H        -0.189369        -0.770728        -0.835257
 H         2.336355         2.144647        -0.572357
 H         2.008290         1.948765         1.108716
 H         4.533649         1.323780         0.653612
 H         3.846615        -1.396372         1.442226
