19
Iteration:  3156
 C         4.584155        -1.047091        -1.479214
 C         3.528297        -0.546155        -0.581907
 O         2.259618        -0.426702        -1.247337
 C         1.504087         0.190989        -0.172989
 C        -0.012161         0.386549        -0.305506
 C         2.301542         1.441182         0.315766
 C         3.588787         0.616262         0.429925
 C         3.141940        -0.747601         0.898625
 O         1.722625        -0.682623         0.888865
 H         4.487823        -0.524090        -2.460504
 H         5.633366        -0.639398        -1.160869
 H         4.730427        -2.106104        -1.680027
 H        -0.270577         0.634736         0.708707
 H        -0.227606         0.888183        -1.167611
 H        -0.488103        -0.608777        -0.426676
 H         2.512670         2.281139        -0.354696
 H         1.867579         1.788502         1.277118
 H         4.525062         1.115518         0.783260
 H         3.554862        -1.366196         1.633399
