19
Iteration:   693
 C         4.593950        -1.018542        -1.490392
 C         3.544721        -0.536322        -0.578122
 O         2.259030        -0.414393        -1.258780
 C         1.483174         0.213303        -0.201021
 C        -0.053525         0.204636        -0.339204
 C         2.305678         1.457521         0.216917
 C         3.613188         0.640523         0.409419
 C         3.147558        -0.702374         0.945266
 O         1.739556        -0.629853         1.014794
 H         4.793780        -2.120559        -1.499600
 H         4.175791        -0.830994        -2.513911
 H         5.585330        -0.593171        -1.301901
 H        -0.386819         0.701799         0.593644
 H        -0.511406         0.788867        -1.213961
 H        -0.301728        -0.838820        -0.299825
 H         2.461758         2.387352        -0.239822
 H         1.935602         1.674645         1.180986
 H         4.560024         0.983450         0.722025
 H         3.776413        -1.300383         1.597333
