19
Iteration:  4969
 C         4.523384        -1.118855        -1.376785
 C         3.518635        -0.412258        -0.596639
 O         2.177794        -0.515511        -1.165006
 C         1.444399         0.129736        -0.061846
 C         0.006541         0.124633        -0.305227
 C         2.214509         1.433647         0.018603
 C         3.553925         0.758913         0.282020
 C         3.299690        -0.456393         0.948330
 O         1.874283        -0.680852         1.034634
 H         5.558295        -0.731135        -1.302213
 H         4.350118        -2.252112        -1.206890
 H         4.351236        -0.973162        -2.453055
 H        -0.360514         0.861517         0.410764
 H         0.022414         0.628329        -1.282259
 H        -0.491290        -0.883512        -0.394966
 H         2.181874         1.894138        -1.029651
 H         2.073507         2.073206         0.945840
 H         4.494834         1.324719         0.506634
 H         3.936929        -1.066462         1.675645
