19
Iteration:  3102
 C         4.548277        -1.136833        -1.525902
 C         3.471551        -0.510582        -0.637005
 O         2.168172        -0.282022        -1.186656
 C         1.485911         0.219738        -0.053158
 C         0.066497         0.350057        -0.497254
 C         2.305016         1.440835         0.370880
 C         3.657366         0.685451         0.529433
 C         3.176797        -0.736016         0.804578
 O         1.745892        -0.797056         0.968970
 H         4.004010        -1.501117        -2.443526
 H         5.478411        -0.430696        -1.620169
 H         5.094953        -1.867979        -0.945681
 H        -0.594312         0.587105         0.347759
 H        -0.057433         1.000521        -1.354574
 H         0.027817        -0.703768        -0.870393
 H         2.260319         2.190707        -0.397232
 H         1.931703         1.810798         1.292023
 H         4.684498         1.133600         0.779879
 H         3.686807        -1.456391         1.477314
