19
Iteration:   967
 C         4.521520        -0.932803        -1.434777
 C         3.451469        -0.498510        -0.519260
 O         2.247190        -0.228412        -1.202984
 C         1.456496         0.203394        -0.109991
 C         0.094630         0.531482        -0.510070
 C         2.391091         1.376221         0.344171
 C         3.627411         0.505173         0.571529
 C         3.126349        -0.865303         0.844157
 O         1.708628        -0.903918         0.863063
 H         5.536813        -0.537953        -1.269839
 H         4.770107        -2.096262        -1.348035
 H         4.291661        -0.820471        -2.498531
 H        -0.476459         0.724981         0.402193
 H         0.172226         1.330157        -1.190352
 H        -0.507939        -0.219999        -1.018904
 H         2.372985         1.971420        -0.609035
 H         1.892060         1.868369         1.159914
 H         4.579002         0.808978         0.840186
 H         3.729378        -1.504622         1.424134
