19
Iteration:  1908charge 0 multiplicity 1
 C         4.662574        -1.054032        -1.362656
 C         3.540113        -0.431435        -0.566658
 O         2.326364        -0.116550        -1.326233
 C         1.479939         0.263836        -0.116021
 C         0.072009         0.733080        -0.321854
 C         2.438561         1.306172         0.516171
 C         3.600770         0.439775         0.661056
 C         3.009556        -0.973152         0.744265
 O         1.534606        -1.006311         0.613534
 H         4.152245        -1.331067        -2.303812
 H         5.325839        -0.351718        -1.672958
 H         5.171666        -1.921977        -0.959481
 H        -0.502807         0.906539         0.593886
 H         0.089534         1.691536        -0.931693
 H        -0.473053         0.050210        -0.967191
 H         2.734732         2.093580        -0.174801
 H         1.822163         1.578660         1.406792
 H         4.550172         0.838564         1.070516
 H         3.391531        -1.758087         1.356134
