19
Iteration:  4607charge 0 multiplicity 1
 C         4.527533        -1.261175        -1.345734
 C         3.486232        -0.362840        -0.589468
 O         2.219896        -0.427947        -1.228172
 C         1.455539         0.217679        -0.072874
 C        -0.055914         0.050241        -0.271006
 C         2.284143         1.475762         0.123405
 C         3.587371         0.835921         0.248509
 C         3.264692        -0.515481         0.819823
 O         1.906217        -0.685118         1.036304
 H         4.609947        -2.112704        -0.683221
 H         4.035712        -1.692543        -2.244458
 H         5.506145        -0.671063        -1.477470
 H        -0.741789         0.413248         0.495457
 H        -0.400148         0.369923        -1.240368
 H        -0.184417        -1.032796        -0.244190
 H         1.991057         2.252467        -0.748529
 H         1.961480         2.078674         1.035643
 H         4.457471         1.381916         0.613066
 H         3.843650        -1.203667         1.290035
