19
Iteration:  1809charge 0 multiplicity 1
 C         4.539419        -1.006770        -1.476860
 C         3.489718        -0.429009        -0.567545
 O         2.398198         0.015866        -1.223332
 C         1.482889         0.238367        -0.114070
 C         0.101045         0.616008        -0.514085
 C         2.438788         1.316996         0.559126
 C         3.600789         0.336550         0.704906
 C         3.004413        -1.002586         0.732032
 O         1.543055        -0.951486         0.736710
 H         4.137123        -1.368105        -2.421655
 H         5.299490        -0.307126        -1.701071
 H         5.003372        -1.883480        -1.009046
 H        -0.523350         1.032724         0.296396
 H         0.255861         1.411104        -1.346003
 H        -0.506226        -0.144339        -0.973422
 H         2.829206         2.066523        -0.139271
 H         2.284392         1.812700         1.558468
 H         4.467822         0.728049         1.194848
 H         3.485208        -1.965738         1.119733
