19
Iteration:  2729
 C         4.573499        -1.011672        -1.440608
 C         3.429694        -0.533166        -0.600772
 O         2.237053        -0.153744        -1.240033
 C         1.463879         0.225744        -0.067602
 C         0.054500         0.395633        -0.532208
 C         2.495251         1.440301         0.494989
 C         3.626506         0.525691         0.584139
 C         3.058654        -0.938602         0.739916
 O         1.661127        -0.795611         0.847906
 H         4.408606        -0.658210        -2.464194
 H         5.430491        -0.422072        -1.075208
 H         4.695129        -2.078197        -1.165815
 H        -0.515960         0.526079         0.430748
 H         0.094538         1.340410        -1.201640
 H        -0.254001        -0.451325        -1.154620
 H         2.768710         2.164675        -0.193665
 H         2.198469         1.828925         1.414434
 H         4.642722         0.746069         0.939850
 H         3.412609        -1.805581         1.284704
