19
Iteration:  2116
 C         4.513414        -1.044420        -1.528281
 C         3.569745        -0.418604        -0.566080
 O         2.330598        -0.112177        -1.160089
 C         1.511539         0.278948        -0.083859
 C         0.135332         0.732112        -0.639309
 C         2.346451         1.320293         0.536911
 C         3.567235         0.419628         0.727599
 C         3.083085        -1.070181         0.741100
 O         1.603589        -0.968338         0.798260
 H         3.967248        -1.024579        -2.578545
 H         5.397845        -0.474727        -1.723183
 H         4.635380        -2.160901        -1.262756
 H        -0.331855         0.979899         0.292720
 H         0.309001         1.605857        -1.150367
 H        -0.443804         0.015052        -1.217667
 H         2.639870         2.119062        -0.222459
 H         1.767405         1.849101         1.410967
 H         4.418092         0.814033         1.260605
 H         3.654841        -1.806694         1.402498
