19
Iteration:  3734charge 0 multiplicity 1
 C         4.651864        -1.109368        -1.405926
 C         3.483359        -0.466880        -0.568106
 O         2.166141        -0.349767        -1.246676
 C         1.444780         0.121398        -0.057449
 C        -0.040233         0.283441        -0.238898
 C         2.331364         1.441381         0.090120
 C         3.604440         0.729671         0.412852
 C         3.201881        -0.667188         0.849981
 O         1.808816        -0.782978         0.971508
 H         4.997776        -1.887745        -0.707804
 H         4.097105        -1.414724        -2.409039
 H         5.369173        -0.250228        -1.566251
 H        -0.483414         0.860931         0.590435
 H        -0.297178         0.842079        -1.158598
 H        -0.436639        -0.671114        -0.528097
 H         2.592519         1.803252        -0.936357
 H         1.984052         2.229406         0.635174
 H         4.490715         1.154569         0.647938
 H         3.640760        -1.287776         1.526052
