19
Iteration:  3649charge 0 multiplicity 1
 C         4.457416        -1.135514        -1.478470
 C         3.536983        -0.486980        -0.555303
 O         2.190341        -0.402059        -1.179022
 C         1.469019         0.110851        -0.074705
 C         0.045647         0.303297        -0.421152
 C         2.242205         1.448055         0.137669
 C         3.613608         0.799615         0.412513
 C         3.265056        -0.622239         0.933399
 O         1.815245        -0.764888         1.029983
 H         5.053539        -1.906767        -1.018138
 H         4.039497        -1.556656        -2.427637
 H         5.226571        -0.521998        -1.750814
 H        -0.605257         0.508681         0.502205
 H         0.036063         1.019548        -1.326326
 H        -0.353278        -0.746895        -0.640484
 H         2.302790         2.069063        -0.844623
 H         1.905779         2.069692         1.005469
 H         4.539866         1.214249         0.594429
 H         3.889385        -1.235847         1.529964
