19
Iteration:   332
 C         4.539895        -1.123280        -1.385759
 C         3.513491        -0.450623        -0.611697
 O         2.130456        -0.562165        -1.111436
 C         1.426672         0.087848        -0.065122
 C         0.025841         0.089589        -0.354060
 C         2.191397         1.489541        -0.051020
 C         3.561533         0.904579         0.258420
 C         3.283432        -0.486613         0.853893
 O         1.992751        -0.692043         1.207105
 H         5.147861        -0.450365        -1.961999
 H         5.148304        -1.805770        -0.815722
 H         3.963339        -1.759593        -2.044902
 H        -0.628549         0.647451         0.361338
 H        -0.139733         0.549412        -1.358731
 H        -0.595029        -0.829173        -0.422674
 H         2.038547         2.007282        -0.987397
 H         1.641973         2.220049         0.676586
 H         4.495402         1.490038         0.479887
 H         4.140509        -0.890708         1.498898
