19
Iteration:   939
 C         4.670005        -1.015867        -1.474262
 C         3.502872        -0.524640        -0.602543
 O         2.286750        -0.248064        -1.244735
 C         1.477057         0.356890        -0.158818
 C        -0.013456         0.345420        -0.414660
 C         2.432615         1.422120         0.414555
 C         3.604963         0.472070         0.525429
 C         3.015331        -0.859441         0.803335
 O         1.644319        -0.724341         0.888339
 H         5.524736        -1.292871        -0.849460
 H         4.391716        -1.979633        -1.845029
 H         4.941872        -0.263866        -2.276786
 H        -0.475109         0.447714         0.600358
 H        -0.362606         1.077132        -1.205496
 H        -0.215596        -0.731111        -0.721186
 H         2.509448         2.290212        -0.216672
 H         2.027462         1.666903         1.443637
 H         4.572055         0.847044         0.946217
 H         3.595358        -1.608574         1.382551
