19
Iteration:  1311charge 0 multiplicity 1
 C         4.604093        -0.984613        -1.476350
 C         3.495808        -0.532545        -0.611607
 O         2.336336        -0.092501        -1.263361
 C         1.546830         0.282109        -0.135256
 C         0.141448         0.697865        -0.525745
 C         2.354780         1.295457         0.692501
 C         3.627639         0.400819         0.591304
 C         2.984130        -1.086733         0.790968
 O         1.558457        -0.823283         0.738238
 H         4.291838        -1.141431        -2.586988
 H         5.462336        -0.326287        -1.410608
 H         5.023430        -2.007122        -1.298243
 H        -0.524680         0.647366         0.331574
 H         0.033318         1.620759        -0.985949
 H        -0.165738        -0.079450        -1.288672
 H         2.493228         2.330024         0.386981
 H         1.862984         1.294595         1.643046
 H         4.707873         0.514364         0.835182
 H         3.121965        -1.818756         1.536261
