19
Iteration:  3993
 C         4.538651        -1.211498        -1.377837
 C         3.515937        -0.444433        -0.637480
 O         2.215604        -0.349090        -1.234171
 C         1.456089         0.175800        -0.093860
 C        -0.031936         0.255286        -0.369574
 C         2.145529         1.478022         0.260045
 C         3.620804         0.763764         0.368846
 C         3.293131        -0.656348         0.861569
 O         1.882534        -0.759963         0.966626
 H         4.379724        -2.285098        -1.143045
 H         4.465818        -1.154081        -2.378360
 H         5.594566        -1.039534        -1.168343
 H        -0.442229         0.848457         0.527407
 H        -0.242305         0.933402        -1.231424
 H        -0.446473        -0.735204        -0.657246
 H         2.058088         2.231407        -0.604826
 H         1.799375         1.944133         1.201847
 H         4.604449         1.252011         0.703133
 H         3.887896        -1.328230         1.567760
