19
Iteration:  2797charge 0 multiplicity 1
 C         4.552174        -1.101269        -1.445227
 C         3.501958        -0.425044        -0.583394
 O         2.302021        -0.162643        -1.242803
 C         1.520861         0.237287        -0.157541
 C         0.092463         0.501249        -0.421709
 C         2.393998         1.317055         0.481927
 C         3.603329         0.574159         0.538566
 C         3.071879        -0.898159         0.827504
 O         1.629026        -0.875867         0.791688
 H         4.450459        -0.576811        -2.421224
 H         5.616468        -0.787124        -1.135324
 H         4.331961        -2.136546        -1.356019
 H        -0.463581         0.878641         0.500888
 H        -0.119515         1.209010        -1.313666
 H        -0.433396        -0.441728        -0.810643
 H         2.509292         2.143199        -0.258955
 H         1.931451         1.643857         1.425824
 H         4.505530         1.133962         0.971089
 H         3.617725        -1.668197         1.406934
