19
Iteration:  3620
 C         4.618050        -1.093309        -1.491547
 C         3.575728        -0.508975        -0.544252
 O         2.201343        -0.486618        -1.218497
 C         1.469845         0.161385        -0.177260
 C        -0.065072         0.264437        -0.280281
 C         2.270268         1.448938         0.189557
 C         3.668586         0.688494         0.326098
 C         3.168336        -0.688862         0.914286
 O         1.716640        -0.571405         1.001952
 H         5.423818        -1.603961        -0.877165
 H         4.297445        -1.671355        -2.313253
 H         5.373053        -0.360876        -1.997641
 H        -0.302141         0.568859         0.683442
 H        -0.464016         0.904723        -1.056541
 H        -0.305269        -0.762378        -0.498168
 H         2.293601         2.272970        -0.465860
 H         1.975194         1.752554         1.245472
 H         4.641355         1.063852         0.521404
 H         3.589124        -1.252743         1.660618
