19
Iteration:  3904
 C         4.611813        -1.007117        -1.446150
 C         3.450791        -0.500256        -0.586388
 O         2.218345        -0.417400        -1.205766
 C         1.443087         0.216794        -0.033049
 C         0.024541         0.306067        -0.342328
 C         2.352977         1.422079         0.145188
 C         3.617452         0.679671         0.407086
 C         3.166759        -0.734988         0.869800
 O         1.770435        -0.787028         0.991331
 H         5.541835        -0.833349        -0.880162
 H         4.329640        -1.956360        -1.653980
 H         4.625659        -0.391082        -2.360370
 H        -0.618965         0.799865         0.521094
 H        -0.041756         1.049169        -1.189026
 H        -0.533055        -0.635609        -0.695113
 H         2.443709         1.859633        -0.874411
 H         2.013545         2.219097         0.896555
 H         4.534748         1.165194         0.527530
 H         3.559682        -1.353427         1.652531
