19
Iteration:  3561charge 0 multiplicity 1
 C         4.589522        -1.187084        -1.482148
 C         3.541844        -0.459762        -0.577157
 O         2.175812        -0.432339        -1.209453
 C         1.442023         0.157793        -0.125635
 C         0.021456         0.327597        -0.371770
 C         2.261588         1.429422         0.277914
 C         3.615225         0.737675         0.354442
 C         3.190383        -0.620923         0.841776
 O         1.814796        -0.739896         0.997663
 H         5.507913        -0.890358        -1.043041
 H         4.580932        -2.248709        -1.158884
 H         4.426903        -0.828713        -2.430622
 H        -0.534273         0.827377         0.538691
 H        -0.206134         0.966513        -1.271123
 H        -0.540456        -0.673185        -0.478261
 H         2.220238         2.255511        -0.575162
 H         2.058826         1.937258         1.234391
 H         4.570801         1.284688         0.653460
 H         3.805338        -1.247680         1.585950
