19
Iteration:   475
 C         4.621597        -1.112117        -1.444795
 C         3.499573        -0.510222        -0.548191
 O         2.220329        -0.435094        -1.191050
 C         1.430078         0.142806        -0.163382
 C        -0.086532         0.025062        -0.265200
 C         2.321827         1.532537         0.118386
 C         3.690962         0.787487         0.266042
 C         3.162606        -0.575460         0.932080
 O         1.796890        -0.607201         1.059428
 H         5.001837        -2.126831        -1.380846
 H         4.180780        -1.229184        -2.424245
 H         5.424718        -0.444052        -1.593341
 H        -0.671560         0.480501         0.648141
 H        -0.510722         0.306429        -1.257771
 H        -0.351618        -1.113442        -0.196716
 H         2.227521         2.243224        -0.715361
 H         2.030279         2.230782         1.019813
 H         4.660942         1.206098         0.340743
 H         3.736881        -1.105851         1.610336
