19
Iteration:  1039charge 0 multiplicity 1
 C         4.594632        -1.070681        -1.390711
 C         3.479750        -0.423999        -0.626814
 O         2.263742        -0.073965        -1.230241
 C         1.461218         0.268536        -0.133927
 C         0.031031         0.357386        -0.431773
 C         2.478688         1.465153         0.434896
 C         3.636074         0.441597         0.699808
 C         3.051483        -0.933416         0.716672
 O         1.641220        -0.820156         0.797790
 H         4.601863        -0.715528        -2.464687
 H         5.512025        -0.766699        -1.032688
 H         4.545860        -2.193483        -1.468025
 H        -0.549093         0.654450         0.464035
 H        -0.067699         0.986203        -1.407331
 H        -0.306071        -0.636711        -0.696604
 H         2.717855         2.064180        -0.443806
 H         1.980156         2.097445         1.259535
 H         4.675062         0.675153         0.993011
 H         3.295561        -1.858707         1.175260
