19
Iteration:  1461
 C         4.602539        -1.044455        -1.472045
 C         3.505245        -0.500192        -0.623888
 O         2.377075        -0.113673        -1.290279
 C         1.554115         0.320281        -0.232545
 C         0.177490         0.798346        -0.489690
 C         2.366566         1.229165         0.680129
 C         3.554325         0.349177         0.705828
 C         2.986228        -0.999748         0.732648
 O         1.513047        -0.882712         0.731676
 H         5.358179        -1.643148        -0.878038
 H         4.247995        -1.704263        -2.239378
 H         5.223153        -0.251659        -1.928732
 H        -0.337091         0.967962         0.485953
 H         0.236217         1.720732        -1.056035
 H        -0.500572        -0.022043        -0.930377
 H         2.682274         2.324455         0.439986
 H         1.652901         1.250524         1.576695
 H         4.416512         0.540463         1.289223
 H         3.499080        -1.825408         1.237163
