19
Iteration:   514
 C         4.608134        -1.045682        -1.381365
 C         3.508529        -0.471050        -0.591047
 O         2.178331        -0.492983        -1.214965
 C         1.491390         0.090736        -0.098326
 C        -0.046822         0.191003        -0.308205
 C         2.206234         1.470196         0.066712
 C         3.616163         0.783709         0.296618
 C         3.281147        -0.579181         0.849665
 O         1.807082        -0.715895         1.134151
 H         5.449761        -1.278065        -0.704223
 H         4.042681        -1.842451        -1.934817
 H         5.000096        -0.299539        -2.167961
 H        -0.328935         0.829151         0.527428
 H        -0.043460         0.762239        -1.232016
 H        -0.572196        -0.746445        -0.360321
 H         2.205713         2.101469        -0.846199
 H         1.826046         1.930989         0.956770
 H         4.599676         1.218626         0.324550
 H         3.760612        -1.367161         1.406609
