19
Iteration:  2456
 C         4.640613        -1.117464        -1.429301
 C         3.520475        -0.481473        -0.672853
 O         2.255807        -0.113811        -1.285752
 C         1.478023         0.236887        -0.096851
 C        -0.006381         0.560925        -0.470252
 C         2.321714         1.317615         0.586525
 C         3.654107         0.517559         0.522268
 C         3.110510        -0.848328         0.830374
 O         1.681815        -0.880615         0.787244
 H         4.358744        -1.598374        -2.386315
 H         5.454725        -0.365251        -1.286107
 H         4.916970        -2.047598        -0.856944
 H        -0.525677         0.963549         0.437405
 H        -0.012052         1.271407        -1.325164
 H        -0.547262        -0.319380        -0.945990
 H         2.350007         2.299186         0.018965
 H         1.912806         1.560706         1.608332
 H         4.686701         0.827997         0.745741
 H         3.456779        -1.660685         1.396373
