19
Iteration:  4513
 C         4.610769        -1.035189        -1.492568
 C         3.465808        -0.471307        -0.573048
 O         2.185114        -0.521076        -1.080734
 C         1.444819         0.101598        -0.024256
 C         0.009552         0.093674        -0.334255
 C         2.251062         1.460172        -0.043560
 C         3.568403         0.736741         0.230841
 C         3.249321        -0.585053         0.908882
 O         1.856885        -0.594946         1.190344
 H         3.953204        -1.590658        -2.194282
 H         5.098574        -0.173860        -2.099572
 H         5.253661        -1.531582        -0.859325
 H        -0.657653         0.545581         0.493390
 H        -0.188948         0.719078        -1.274088
 H        -0.484272        -0.858832        -0.607417
 H         2.199725         1.865223        -0.984711
 H         2.055761         2.293845         0.638810
 H         4.594899         1.142502         0.131181
 H         3.991870        -0.918947         1.633748
