19
Iteration:  3625charge 0 multiplicity 1
 C         4.601018        -1.076644        -1.475205
 C         3.591976        -0.518580        -0.589861
 O         2.234475        -0.494414        -1.220577
 C         1.463769         0.194893        -0.196242
 C        -0.046756         0.252559        -0.307417
 C         2.270668         1.435917         0.217449
 C         3.634460         0.699571         0.336536
 C         3.145895        -0.690295         0.926057
 O         1.751675        -0.580340         1.016345
 H         5.320745        -1.746174        -1.008522
 H         4.101318        -1.658822        -2.321113
 H         5.318114        -0.427238        -1.971195
 H        -0.412522         0.497421         0.764324
 H        -0.292490         1.002376        -1.089623
 H        -0.585480        -0.744206        -0.380993
 H         2.188232         2.258281        -0.572192
 H         1.994947         1.770078         1.184571
 H         4.666755         1.135346         0.578804
 H         3.673321        -1.211455         1.824105
