19
Iteration:  1340
 C         4.579483        -1.088248        -1.446061
 C         3.542445        -0.335077        -0.591798
 O         2.311698        -0.073346        -1.291121
 C         1.508957         0.232540        -0.156696
 C         0.101678         0.837600        -0.452676
 C         2.371923         1.268926         0.584533
 C         3.587832         0.415188         0.761986
 C         3.041342        -1.037252         0.717130
 O         1.614882        -1.039823         0.669809
 H         4.166058        -1.811678        -2.136960
 H         5.267065        -0.433108        -1.941803
 H         5.128038        -1.705791        -0.740897
 H        -0.587505         0.817978         0.405813
 H         0.140149         1.866892        -0.946521
 H        -0.466954         0.138231        -1.049317
 H         2.673578         2.195970        -0.103462
 H         1.797781         1.695799         1.498762
 H         4.525953         0.663094         1.326853
 H         3.408887        -1.897421         1.297329
