19
Iteration:  4792charge 0 multiplicity 1
 C         4.439017        -1.252557        -1.430594
 C         3.562502        -0.476105        -0.608346
 O         2.287491        -0.423406        -1.137800
 C         1.480462         0.146923        -0.107042
 C        -0.020200         0.064036        -0.319143
 C         2.168950         1.504152         0.143894
 C         3.586942         0.858631         0.310266
 C         3.319592        -0.531390         0.917361
 O         1.806116        -0.612205         0.983022
 H         5.485748        -0.979691        -1.335304
 H         4.520648        -2.258059        -1.112898
 H         4.121921        -1.109960        -2.473892
 H        -0.439783         0.530118         0.621233
 H        -0.318662         0.489495        -1.321568
 H        -0.141117        -1.036614        -0.319547
 H         2.101458         2.357317        -0.639377
 H         1.862917         1.939624         1.137791
 H         4.502145         1.372430         0.336569
 H         4.046743        -1.244266         1.388781
