19
Iteration:  4258charge 0 multiplicity 1
 C         4.540684        -1.114408        -1.413646
 C         3.490944        -0.497439        -0.607703
 O         2.188730        -0.532052        -1.187617
 C         1.486206         0.189552        -0.129812
 C        -0.035702         0.108272        -0.333700
 C         2.283192         1.439368         0.170749
 C         3.656396         0.775437         0.218024
 C         3.287662        -0.580363         0.923020
 O         1.770989        -0.559602         1.083203
 H         5.535059        -1.221255        -1.013533
 H         4.345631        -2.045019        -1.886582
 H         4.575046        -0.339322        -2.233739
 H        -0.475941         0.479810         0.624171
 H        -0.324821         0.742183        -1.184376
 H        -0.337189        -0.997415        -0.354517
 H         2.192225         2.301668        -0.582865
 H         1.956050         1.834154         1.115813
 H         4.574385         1.376239         0.391358
 H         3.775851        -1.261235         1.553523
