19
Iteration:  1261charge 0 multiplicity 1
 C         4.527257        -0.921217        -1.470364
 C         3.489593        -0.471442        -0.520006
 O         2.361069        -0.065707        -1.247818
 C         1.557126         0.370101        -0.091283
 C         0.077103         0.552551        -0.530709
 C         2.511804         1.326195         0.568667
 C         3.591088         0.348359         0.689001
 C         2.956513        -1.073950         0.806562
 O         1.550612        -0.908244         0.668101
 H         4.727143        -0.259703        -2.266288
 H         5.530011        -1.231970        -1.025324
 H         4.228899        -1.834339        -1.957069
 H        -0.465606         0.938548         0.357809
 H        -0.109244         1.360152        -1.310452
 H        -0.277144        -0.398907        -1.003396
 H         2.764924         2.089607        -0.227853
 H         2.264075         1.893842         1.515395
 H         4.536030         0.620499         1.089195
 H         3.366633        -1.914334         1.355097
