19
Iteration:  4126charge 0 multiplicity 1
 C         4.499566        -1.175580        -1.382122
 C         3.488656        -0.428968        -0.590602
 O         2.185786        -0.365994        -1.152256
 C         1.465370         0.159488        -0.051086
 C         0.028731         0.199821        -0.379479
 C         2.230566         1.460169         0.162779
 C         3.620769         0.769794         0.324176
 C         3.322870        -0.630039         0.831191
 O         1.816377        -0.725530         0.990549
 H         4.340713        -0.927227        -2.426219
 H         5.416124        -0.835431        -1.011870
 H         4.455982        -2.249799        -1.123451
 H        -0.585870         0.614419         0.484330
 H        -0.277267         0.769160        -1.331998
 H        -0.343029        -0.891532        -0.557355
 H         2.255644         1.932980        -0.912573
 H         1.959510         2.212716         0.923590
 H         4.544158         1.113027         0.747005
 H         4.006418        -1.278904         1.499512
