19
Iteration:  3594
 C         4.604597        -1.016111        -1.339028
 C         3.455071        -0.544461        -0.614816
 O         2.126825        -0.398740        -1.260739
 C         1.470537         0.220220        -0.062540
 C        -0.044612         0.223234        -0.288790
 C         2.360021         1.492522         0.153602
 C         3.611829         0.622400         0.329376
 C         3.159025        -0.735026         0.817483
 O         1.824341        -0.680482         1.019881
 H         5.388281        -1.026409        -0.604649
 H         4.537308        -2.037283        -1.865322
 H         5.071526        -0.504189        -2.090604
 H        -0.428482         0.805196         0.644564
 H        -0.257509         0.912296        -1.179880
 H        -0.281348        -0.842119        -0.621277
 H         2.420825         2.060236        -0.889436
 H         2.202146         2.199049         0.991422
 H         4.640666         1.007702         0.527867
 H         3.765842        -1.215154         1.676286
