19
Iteration:  1209
 C         4.617533        -1.072391        -1.315934
 C         3.509051        -0.414438        -0.619738
 O         2.195243        -0.083107        -1.250806
 C         1.495190         0.245058        -0.120903
 C         0.080202         0.715108        -0.503159
 C         2.338620         1.293331         0.625141
 C         3.699082         0.503511         0.601471
 C         3.058457        -0.972292         0.663183
 O         1.640535        -1.028878         0.703128
 H         5.604889        -0.600966        -1.154979
 H         4.742324        -2.127837        -1.070372
 H         4.447805        -1.163990        -2.387925
 H        -0.434134         1.175525         0.331657
 H         0.235589         1.512624        -1.295578
 H        -0.506566        -0.045962        -0.946935
 H         2.256508         2.329514         0.061368
 H         2.088266         1.333858         1.750438
 H         4.643310         0.786209         1.015656
 H         3.648085        -1.737939         1.166708
