19
Iteration:  4180
 C         4.591825        -1.165033        -1.438809
 C         3.519002        -0.550051        -0.559773
 O         2.192168        -0.492886        -1.237521
 C         1.465346         0.186807        -0.147073
 C        -0.029496         0.161651        -0.242323
 C         2.266521         1.463727         0.164772
 C         3.584842         0.826732         0.320367
 C         3.258758        -0.571828         0.894281
 O         1.790631        -0.618767         0.993669
 H         5.266180        -0.339455        -1.837558
 H         5.158142        -1.967414        -0.916193
 H         4.217558        -1.750480        -2.360057
 H        -0.421871         0.705949         0.653760
 H        -0.367781         0.702443        -1.201830
 H        -0.355524        -0.884381        -0.500773
 H         2.250186         2.457120        -0.445362
 H         1.975937         1.799569         1.154580
 H         4.547979         1.353021         0.438107
 H         3.805766        -1.265513         1.697599
