19
Iteration:  1743charge 0 multiplicity 1
 C         4.679880        -1.020250        -1.387049
 C         3.553307        -0.509605        -0.549970
 O         2.247829         0.037597        -1.246900
 C         1.476528         0.336395        -0.057438
 C         0.079991         0.663701        -0.430010
 C         2.487707         1.302613         0.530548
 C         3.552723         0.306786         0.671035
 C         2.974265        -1.083396         0.715777
 O         1.573448        -0.912603         0.601196
 H         4.665652        -2.105332        -1.430284
 H         4.516955        -0.573048        -2.368762
 H         5.616274        -0.715271        -0.917407
 H        -0.605436         0.801793         0.426209
 H         0.210490         1.614048        -1.039230
 H        -0.350122        -0.100729        -1.110429
 H         2.694827         1.955383        -0.317595
 H         2.271495         1.800748         1.507128
 H         4.467208         0.568221         1.225013
 H         3.394260        -1.952059         1.111067
