19
Iteration:  1073charge 0 multiplicity 1
 C         4.645894        -1.115936        -1.415343
 C         3.506048        -0.484482        -0.598789
 O         2.353836        -0.087225        -1.289614
 C         1.509357         0.231970        -0.189336
 C         0.028548         0.461048        -0.393740
 C         2.360395         1.413810         0.539145
 C         3.632871         0.491263         0.572131
 C         3.011983        -0.890860         0.812811
 O         1.621114        -0.851842         0.743629
 H         4.161180        -1.323931        -2.381517
 H         5.327758        -0.299091        -1.636241
 H         5.121302        -2.007706        -1.020289
 H        -0.406527         0.799789         0.581937
 H        -0.309987         1.268130        -1.115527
 H        -0.450230        -0.506740        -0.665073
 H         2.489624         2.420682         0.003466
 H         1.758459         1.599494         1.535697
 H         4.636859         0.752400         0.757592
 H         3.416340        -1.709950         1.421009
