19
Iteration:  3025
 C         4.666028        -1.001821        -1.357306
 C         3.430458        -0.489349        -0.623799
 O         2.185096        -0.297522        -1.275574
 C         1.456205         0.242217        -0.088663
 C        -0.033484         0.436953        -0.392476
 C         2.389998         1.331938         0.381338
 C         3.700312         0.575933         0.420494
 C         3.154888        -0.822596         0.800603
 O         1.702669        -0.797631         0.905673
 H         4.800024        -2.054528        -1.050677
 H         4.243374        -0.862719        -2.447686
 H         5.517188        -0.349551        -1.069323
 H        -0.668256         0.848969         0.420157
 H         0.001475         1.287302        -1.046123
 H        -0.407382        -0.528661        -0.776664
 H         2.372349         2.046579        -0.404326
 H         2.079181         1.815857         1.267727
 H         4.662240         0.978901         0.705339
 H         3.702618        -1.695022         1.312196
