19
Iteration:  2263
 C         4.525714        -0.988724        -1.505910
 C         3.435709        -0.560892        -0.620167
 O         2.295676        -0.119915        -1.205901
 C         1.497865         0.325760        -0.057617
 C         0.129548         0.526556        -0.637031
 C         2.479244         1.338728         0.613285
 C         3.610338         0.447292         0.670029
 C         3.002287        -0.976590         0.773930
 O         1.624685        -0.838238         0.793700
 H         5.423425        -0.476198        -1.218190
 H         4.766444        -2.121541        -1.524085
 H         4.197959        -0.632252        -2.459426
 H        -0.465253         0.740329         0.301963
 H         0.236027         1.358795        -1.467821
 H        -0.173548        -0.424610        -1.111925
 H         2.759253         2.180910        -0.117031
 H         2.110391         1.667667         1.640116
 H         4.553101         0.806031         1.040700
 H         3.374989        -1.866445         1.349904
