19
Iteration:  4964charge 0 multiplicity 1
 C         4.496789        -1.127559        -1.371649
 C         3.535112        -0.405623        -0.573566
 O         2.156694        -0.486428        -1.179875
 C         1.438848         0.152876        -0.072440
 C        -0.038502         0.074879        -0.338450
 C         2.234767         1.428944         0.044919
 C         3.617935         0.788340         0.269619
 C         3.320450        -0.488930         0.964054
 O         1.873646        -0.684333         1.048989
 H         5.586358        -0.947647        -1.214174
 H         4.321618        -2.171570        -1.226245
 H         4.363533        -1.054591        -2.531463
 H        -0.479793         0.839904         0.368015
 H         0.008283         0.631476        -1.345894
 H        -0.420939        -0.938047        -0.339063
 H         2.128011         2.001076        -0.834485
 H         2.015512         2.105022         0.834752
 H         4.493381         1.427299         0.365555
 H         3.918424        -0.988912         1.633794
