19
Iteration:   985charge 0 multiplicity 1
 C         4.626790        -1.047911        -1.538237
 C         3.557531        -0.450287        -0.607638
 O         2.210668        -0.356726        -1.236343
 C         1.475172         0.214828        -0.141507
 C         0.074671         0.653030        -0.551103
 C         2.311417         1.394178         0.466404
 C         3.544415         0.607081         0.577753
 C         3.128927        -0.919035         0.849109
 O         1.717956        -0.930452         0.957135
 H         5.416896        -0.296207        -1.644236
 H         5.089781        -1.856529        -1.149345
 H         4.109378        -1.129173        -2.469123
 H        -0.485974         0.910784         0.353125
 H         0.256126         1.518755        -1.286869
 H        -0.415750        -0.179671        -1.035459
 H         2.430441         2.239328        -0.268002
 H         1.761267         1.746271         1.479300
 H         4.408840         1.143497         1.054034
 H         3.625198        -1.690175         1.455352
