19
Iteration:  2923charge 0 multiplicity 1
 C         4.681431        -1.154438        -1.389735
 C         3.507967        -0.497402        -0.625312
 O         2.177291        -0.175204        -1.250021
 C         1.482404         0.304766        -0.231211
 C        -0.031598         0.442204        -0.390236
 C         2.322298         1.389257         0.511090
 C         3.667208         0.555096         0.466646
 C         3.126019        -0.842360         0.765587
 O         1.706148        -0.828279         0.847266
 H         5.516367        -0.583026        -0.976839
 H         4.633529        -2.180037        -1.057514
 H         4.654536        -0.723142        -2.465799
 H        -0.428388         0.688328         0.567840
 H        -0.245005         1.141266        -1.259009
 H        -0.390294        -0.516116        -0.717052
 H         2.393926         2.418689         0.008581
 H         2.002681         1.489425         1.626238
 H         4.778295         0.838840         0.670807
 H         3.559207        -1.634784         1.432404
