19
Iteration:  4415charge 0 multiplicity 1
 C         4.580107        -1.117831        -1.416738
 C         3.505496        -0.504434        -0.569036
 O         2.187316        -0.553090        -1.158077
 C         1.475236         0.148555        -0.110654
 C         0.001539         0.147148        -0.246641
 C         2.218811         1.415877         0.057645
 C         3.644093         0.836191         0.210636
 C         3.243863        -0.537973         0.837132
 O         1.837525        -0.608754         1.107080
 H         4.103791        -1.919041        -1.965830
 H         4.948945        -0.359083        -2.137244
 H         5.281868        -1.314739        -0.735223
 H        -0.536205         0.637751         0.643760
 H        -0.444747         0.583445        -1.204648
 H        -0.350034        -0.897687        -0.459059
 H         2.087786         2.138757        -0.713380
 H         1.810656         1.789180         1.053136
 H         4.528359         1.464977         0.276302
 H         3.831664        -0.939309         1.593177
