19
Iteration:   737
 C         4.467033        -1.081551        -1.379508
 C         3.474317        -0.439963        -0.621058
 O         2.206275        -0.279043        -1.258430
 C         1.462739         0.218149        -0.115362
 C        -0.062171         0.241986        -0.446303
 C         2.348149         1.417632         0.259682
 C         3.620963         0.683395         0.422992
 C         3.227224        -0.746150         0.854832
 O         1.877287        -0.790949         1.041463
 H         5.209789        -1.440205        -0.642164
 H         3.891026        -1.950457        -1.821006
 H         5.025944        -0.393083        -1.977095
 H        -0.693109         0.565758         0.374626
 H        -0.022497         0.939462        -1.344558
 H        -0.228095        -0.736527        -0.839128
 H         2.337443         2.104886        -0.551919
 H         2.043954         1.911225         1.107009
 H         4.483963         1.240187         0.709270
 H         3.841276        -1.394507         1.433140
