19
Iteration:  2515charge 0 multiplicity 1
 C         4.616139        -1.020391        -1.426422
 C         3.531677        -0.535349        -0.579799
 O         2.204128        -0.101106        -1.305366
 C         1.502557         0.258564        -0.119048
 C         0.001884         0.504024        -0.438701
 C         2.463130         1.397809         0.397534
 C         3.604406         0.470370         0.595294
 C         3.046457        -0.901512         0.818247
 O         1.642540        -0.924971         0.862604
 H         4.411568        -0.514649        -2.391729
 H         5.746849        -0.497638        -1.335659
 H         4.775679        -2.114488        -1.351325
 H        -0.653260         0.617601         0.404944
 H        -0.071141         1.331725        -1.146661
 H        -0.203742        -0.442541        -0.902271
 H         2.654636         2.182701        -0.472684
 H         2.224466         1.826027         1.441187
 H         4.467722         0.835988         1.095411
 H         3.580385        -1.645302         1.451939
