19
Iteration:  2127charge 0 multiplicity 1
 C         4.470143        -1.017278        -1.503382
 C         3.506537        -0.391457        -0.519582
 O         2.262217        -0.098565        -1.206979
 C         1.488285         0.241586        -0.135578
 C         0.147538         0.695454        -0.623831
 C         2.413168         1.310975         0.573324
 C         3.582314         0.420323         0.732105
 C         3.074124        -1.031174         0.789595
 O         1.684265        -0.948237         0.774625
 H         3.947688        -0.990577        -2.566323
 H         5.486361        -0.664554        -1.522584
 H         4.667165        -2.141770        -1.247906
 H        -0.651241         1.065206        -0.013095
 H         0.407282         1.464956        -1.248506
 H        -0.283580        -0.029474        -1.334006
 H         2.607333         2.089081        -0.238197
 H         2.175440         1.752965         1.636350
 H         4.499127         0.730693         1.211867
 H         3.495840        -2.022501         1.169287
