19
Iteration:  3209
 C         4.567918        -1.131942        -1.364643
 C         3.481457        -0.496914        -0.621168
 O         2.161639        -0.321777        -1.274256
 C         1.469632         0.179016        -0.021294
 C         0.004897         0.265788        -0.409866
 C         2.300386         1.466605         0.326743
 C         3.646537         0.711136         0.367143
 C         3.172193        -0.733376         0.805179
 O         1.816039        -0.739728         0.961955
 H         5.391143        -0.599962        -1.799926
 H         5.279846        -1.765225        -0.773109
 H         4.079000        -1.567668        -2.225414
 H        -0.615910         0.686992         0.442431
 H         0.063369         1.057976        -1.225335
 H        -0.467208        -0.746498        -0.681973
 H         2.300681         2.323315        -0.422942
 H         1.890763         1.895175         1.369813
 H         4.653073         1.114353         0.579165
 H         3.747265        -1.290977         1.425892
