19
Iteration:   761charge 0 multiplicity 1
 C         4.616742        -1.185966        -1.463185
 C         3.528001        -0.447010        -0.655941
 O         2.238021        -0.376436        -1.201703
 C         1.461484         0.143553        -0.078787
 C         0.017672         0.342253        -0.415101
 C         2.208334         1.432689         0.372603
 C         3.571352         0.748522         0.388966
 C         3.256343        -0.662327         0.847548
 O         1.745619        -0.769187         0.938848
 H         5.609616        -0.947991        -1.139824
 H         4.345274        -2.231824        -1.215620
 H         4.564476        -0.932118        -2.488736
 H        -0.432066         0.783204         0.526617
 H         0.167538         1.211000        -1.134980
 H        -0.502367        -0.540308        -0.878460
 H         2.004317         2.355929        -0.235962
 H         1.878673         1.636526         1.361055
 H         4.564195         1.190506         0.711630
 H         3.826258        -1.409679         1.422683
