19
Iteration:  4530
 C         4.549122        -0.967563        -1.457165
 C         3.449774        -0.575363        -0.598462
 O         2.100605        -0.621688        -1.157964
 C         1.474300         0.148074        -0.019931
 C        -0.018014         0.187501        -0.356566
 C         2.248723         1.425322         0.012704
 C         3.618708         0.765734         0.187927
 C         3.313349        -0.559113         0.952372
 O         1.889534        -0.594696         1.190405
 H         4.469117        -1.757106        -2.198005
 H         4.868444        -0.184624        -2.132405
 H         5.463408        -1.187914        -0.733402
 H        -0.522765         0.631835         0.440080
 H        -0.099193         0.697316        -1.276965
 H        -0.218797        -0.838821        -0.679111
 H         2.180849         1.873054        -1.069432
 H         1.871982         2.004439         0.872515
 H         4.405527         1.412721         0.506944
 H         3.789744        -1.042537         1.790412
