19
Iteration:   296
 C         4.574901        -1.197538        -1.495381
 C         3.552590        -0.529390        -0.541243
 O         2.229414        -0.621575        -1.185386
 C         1.486024         0.097237        -0.111061
 C         0.002775         0.047219        -0.307902
 C         2.119500         1.476947         0.125304
 C         3.545808         0.898610         0.106085
 C         3.250689        -0.365361         0.932041
 O         1.881572        -0.572654         1.176410
 H         5.516734        -0.715270        -1.406844
 H         4.686117        -2.251135        -1.295491
 H         4.215177        -1.060092        -2.509962
 H        -0.298513         0.831231         0.382772
 H        -0.127236         0.543502        -1.314508
 H        -0.458997        -0.916396        -0.155810
 H         1.791350         2.297523        -0.562857
 H         1.895117         1.622989         1.134098
 H         4.444452         1.451324         0.311268
 H         3.861264        -0.584316         1.750747
