19
Iteration:  4778charge 0 multiplicity 1
 C         4.506969        -1.360420        -1.421557
 C         3.525990        -0.380602        -0.594568
 O         2.196499        -0.427665        -1.226301
 C         1.506244         0.144728        -0.183115
 C         0.038197         0.040197        -0.297784
 C         2.195980         1.502688         0.222403
 C         3.590462         0.903238         0.319188
 C         3.232842        -0.457822         0.857812
 O         1.898677        -0.664734         1.014874
 H         5.539330        -0.969727        -1.455556
 H         4.421243        -2.379731        -1.090512
 H         4.119835        -1.406703        -2.500667
 H        -0.443677         0.669162         0.478125
 H        -0.271850         0.581257        -1.222342
 H        -0.454533        -0.980085        -0.206339
 H         2.034612         2.273249        -0.414120
 H         1.781624         1.779399         1.134962
 H         4.483993         1.445303         0.795810
 H         3.798500        -0.983536         1.709524
