19
Iteration:  1028charge 0 multiplicity 1
 C         4.581154        -1.024295        -1.412590
 C         3.461645        -0.517402        -0.558696
 O         2.238194        -0.120825        -1.300452
 C         1.536542         0.318163        -0.134081
 C         0.074157         0.401509        -0.490937
 C         2.408154         1.434977         0.482205
 C         3.651910         0.536702         0.602669
 C         3.043572        -0.970402         0.784937
 O         1.637920        -0.872867         0.838726
 H         4.653108        -0.448268        -2.369361
 H         5.477586        -1.023120        -0.876520
 H         4.302293        -2.070662        -1.623011
 H        -0.512007         0.807995         0.357851
 H        -0.133309         1.148136        -1.357774
 H        -0.242095        -0.598076        -0.751407
 H         2.540868         2.246794        -0.241083
 H         2.155821         1.873781         1.500935
 H         4.725600         0.743702         0.792290
 H         3.606507        -1.683288         1.347661
