19
Iteration:   714
 C         4.617569        -1.111731        -1.516132
 C         3.524677        -0.502049        -0.630054
 O         2.186831        -0.311452        -1.174201
 C         1.487573         0.218183        -0.088946
 C         0.010420         0.141831        -0.383475
 C         2.355111         1.504428         0.292841
 C         3.662524         0.688383         0.416641
 C         3.103511        -0.730112         0.861890
 O         1.699112        -0.668460         0.973228
 H         5.201443        -1.937416        -1.022859
 H         4.086930        -1.440570        -2.452600
 H         5.372008        -0.294220        -1.544481
 H        -0.440537         0.433934         0.543630
 H        -0.260993         0.658218        -1.331125
 H        -0.111913        -0.915096        -0.469061
 H         2.362267         2.068009        -0.576267
 H         2.037646         2.118682         1.115896
 H         4.613119         1.119366         0.573135
 H         3.507728        -1.386343         1.626275
