19
Iteration:  1189
 C         4.582685        -1.051352        -1.392748
 C         3.458054        -0.441127        -0.619722
 O         2.330867        -0.008833        -1.297296
 C         1.497039         0.223301        -0.049184
 C         0.126970         0.549449        -0.449864
 C         2.384754         1.364264         0.598278
 C         3.605674         0.422129         0.588170
 C         3.007698        -1.020736         0.720642
 O         1.595889        -0.890937         0.722220
 H         5.592104        -0.768835        -0.876307
 H         4.571199        -2.134845        -1.491614
 H         4.743984        -0.676421        -2.447635
 H        -0.468741         0.863442         0.388375
 H         0.103032         1.380934        -1.186385
 H        -0.248477        -0.296479        -0.931208
 H         2.633487         2.114361        -0.147700
 H         2.067115         1.804944         1.547441
 H         4.518414         0.744416         1.037749
 H         3.381652        -1.936709         1.231575
