19
Iteration:  2293
 C         4.548147        -1.053510        -1.505519
 C         3.562201        -0.469358        -0.531657
 O         2.343910        -0.039448        -1.251112
 C         1.504569         0.301067        -0.135937
 C         0.036120         0.521442        -0.548447
 C         2.462500         1.308277         0.506848
 C         3.637338         0.472378         0.725513
 C         2.982641        -1.004116         0.791059
 O         1.571523        -0.895616         0.799407
 H         5.604292        -1.190317        -1.230348
 H         3.958514        -1.845586        -2.050311
 H         4.716792        -0.350624        -2.401504
 H        -0.374573         0.789258         0.410516
 H        -0.148930         1.288118        -1.224962
 H        -0.271226        -0.458233        -0.856389
 H         2.743135         2.150270        -0.227841
 H         2.082286         1.904628         1.420367
 H         4.536782         0.927974         1.113078
 H         3.384611        -1.920935         1.330057
