19
Iteration:  4402charge 0 multiplicity 1
 C         4.575979        -1.053062        -1.489630
 C         3.523751        -0.527918        -0.585720
 O         2.265109        -0.583224        -1.154849
 C         1.438729         0.128014        -0.133757
 C        -0.082671         0.153918        -0.291069
 C         2.257994         1.428345         0.092209
 C         3.558523         0.746316         0.189068
 C         3.241356        -0.513465         0.989734
 O         1.838327        -0.551551         1.081257
 H         4.355735        -2.096083        -1.825614
 H         4.656138        -0.394805        -2.412354
 H         5.612173        -1.225951        -1.186999
 H        -0.433822         0.593253         0.704916
 H        -0.358923         0.856931        -1.128079
 H        -0.418359        -0.950327        -0.163672
 H         2.155455         2.084896        -0.748907
 H         1.949357         1.978502         0.985441
 H         4.483530         1.168658         0.553005
 H         3.865980        -0.958051         1.830727
