19
Iteration:  3785charge 0 multiplicity 1
 C         4.600344        -1.090304        -1.514583
 C         3.477006        -0.509758        -0.584444
 O         2.151196        -0.488188        -1.189741
 C         1.469769         0.219731        -0.095280
 C        -0.000237         0.250643        -0.474521
 C         2.269641         1.459200         0.313215
 C         3.669873         0.663260         0.314662
 C         3.242832        -0.648466         0.949730
 O         1.780402        -0.646497         1.005524
 H         5.503087        -1.214025        -0.875828
 H         4.096360        -1.856044        -2.022816
 H         5.049168        -0.346221        -2.261981
 H        -0.478904         0.599476         0.466093
 H        -0.227572         0.956554        -1.254750
 H        -0.402088        -0.726687        -0.752171
 H         2.322022         2.419428        -0.210717
 H         1.905591         1.560694         1.402137
 H         4.612452         1.130443         0.508500
 H         3.646084        -1.255419         1.722208
