19
Iteration:  3888
 C         4.606912        -1.053469        -1.328950
 C         3.469181        -0.477990        -0.617878
 O         2.101408        -0.369975        -1.177124
 C         1.469298         0.121278        -0.049624
 C        -0.042682         0.405189        -0.398527
 C         2.303657         1.500180         0.181198
 C         3.634185         0.709343         0.333441
 C         3.235170        -0.781850         0.829410
 O         1.814518        -0.830187         0.989063
 H         5.534505        -0.652998        -0.907717
 H         4.895542        -2.194635        -1.231485
 H         4.629413        -0.736636        -2.372975
 H        -0.612497         0.714399         0.411314
 H         0.066832         1.019620        -1.276497
 H        -0.478017        -0.554323        -0.565299
 H         2.213459         2.096433        -0.722885
 H         2.018830         2.074110         1.010541
 H         4.674955         1.106750         0.664010
 H         3.969535        -1.499089         1.292619
