19
Iteration:   340charge 0 multiplicity 1
 C         4.572451        -1.111956        -1.379579
 C         3.395738        -0.515235        -0.631636
 O         2.164267        -0.477649        -1.148063
 C         1.461093         0.095423        -0.049483
 C         0.021269         0.059850        -0.299245
 C         2.188594         1.506937        -0.078973
 C         3.547406         0.872647         0.257889
 C         3.284648        -0.490140         0.877494
 O         1.955315        -0.671595         1.219827
 H         4.982294        -0.335854        -1.969524
 H         5.314035        -1.566171        -0.725590
 H         4.163474        -1.905289        -2.028104
 H        -0.649794         0.600822         0.364776
 H        -0.085676         0.570868        -1.320549
 H        -0.174690        -1.019374        -0.393090
 H         2.209667         1.839355        -1.144937
 H         1.804149         2.175175         0.627660
 H         4.536467         1.346906         0.354711
 H         4.017033        -1.079621         1.422001
