19
Iteration:  3456
 C         4.624840        -1.109658        -1.404620
 C         3.532222        -0.524676        -0.635240
 O         2.229696        -0.519882        -1.275992
 C         1.445652         0.159910        -0.132838
 C        -0.021403         0.370955        -0.257751
 C         2.258754         1.422030         0.246930
 C         3.591277         0.737334         0.330674
 C         3.194422        -0.687067         0.936327
 O         1.783937        -0.652797         0.960555
 H         5.464741        -1.352141        -0.697169
 H         4.278847        -1.767822        -2.226225
 H         5.156834        -0.460263        -2.272143
 H        -0.273848         0.739147         0.724370
 H        -0.374621         1.065454        -1.036999
 H        -0.593278        -0.535242        -0.401083
 H         2.253808         2.045060        -0.597495
 H         1.735811         1.799049         1.121681
 H         4.532187         1.350203         0.407167
 H         3.776438        -1.304350         1.699716
