19
Iteration:   490charge 0 multiplicity 1
 C         4.587464        -1.069562        -1.445850
 C         3.520933        -0.475649        -0.578241
 O         2.152555        -0.430582        -1.164322
 C         1.474422         0.244636        -0.040010
 C        -0.107736         0.039159        -0.267857
 C         2.318901         1.482228         0.003627
 C         3.553320         0.710154         0.335955
 C         3.284721        -0.610841         0.904166
 O         1.826606        -0.647212         0.987210
 H         5.079488        -1.773519        -0.719666
 H         4.138073        -1.444882        -2.402011
 H         5.425585        -0.339593        -1.634761
 H        -0.504659         0.557377         0.539546
 H        -0.261711         0.446973        -1.259674
 H        -0.232708        -0.975605        -0.168378
 H         2.470334         1.972791        -1.039833
 H         2.003682         2.130432         0.776830
 H         4.482343         1.249289         0.707735
 H         3.829075        -1.169951         1.772239
