19
Iteration:  3401charge 0 multiplicity 1
 C         4.525396        -1.109709        -1.473624
 C         3.473819        -0.516773        -0.585075
 O         2.167038        -0.397780        -1.189005
 C         1.513261         0.176991        -0.072107
 C        -0.037895         0.149737        -0.398886
 C         2.357796         1.457412         0.258029
 C         3.623284         0.681919         0.357140
 C         3.199325        -0.662005         0.869028
 O         1.808214        -0.556321         1.016577
 H         5.149130        -1.981107        -1.196708
 H         4.059113        -1.628035        -2.324132
 H         5.310283        -0.296092        -1.811790
 H        -0.630534         0.529232         0.376467
 H        -0.154451         0.811067        -1.248298
 H        -0.122558        -0.859194        -0.622047
 H         2.312542         2.244655        -0.430125
 H         1.945690         1.750179         1.178932
 H         4.579185         1.092405         0.630128
 H         3.769537        -1.274553         1.436258
