19
Iteration:  1436
 C         4.538671        -0.978883        -1.492109
 C         3.535084        -0.444400        -0.510476
 O         2.297009        -0.054786        -1.202267
 C         1.499465         0.233603        -0.069091
 C         0.154463         0.800315        -0.640055
 C         2.473670         1.288786         0.616089
 C         3.558247         0.350067         0.703061
 C         2.974108        -1.103399         0.856246
 O         1.594767        -0.996270         0.639033
 H         5.083688        -1.925644        -1.375590
 H         3.959244        -1.062045        -2.569810
 H         5.456931        -0.306403        -1.673716
 H        -0.471362         1.217496         0.196615
 H         0.560202         1.682242        -1.283740
 H        -0.573006         0.109159        -1.056102
 H         2.515115         1.997914        -0.123884
 H         2.178566         1.824593         1.506739
 H         4.555680         0.684349         1.101277
 H         3.339866        -1.918955         1.403129
