19
Iteration:  2120
 C         4.484078        -1.042028        -1.514559
 C         3.554719        -0.389249        -0.563532
 O         2.297036        -0.105477        -1.150772
 C         1.531174         0.285115        -0.107486
 C         0.129157         0.709503        -0.639678
 C         2.366874         1.318224         0.545591
 C         3.549230         0.433139         0.722601
 C         3.100974        -1.099218         0.767501
 O         1.629031        -0.961940         0.791501
 H         4.054294        -1.015280        -2.461887
 H         5.447072        -0.561857        -1.735655
 H         4.614554        -2.065957        -1.300679
 H        -0.456150         1.017761         0.282245
 H         0.463363         1.652901        -1.272717
 H        -0.478134         0.009311        -1.338120
 H         2.679962         1.985631        -0.287230
 H         1.923299         1.752862         1.445765
 H         4.408871         0.804680         1.293845
 H         3.612028        -1.844587         1.279247
