19
Iteration:  3397charge 0 multiplicity 1
 C         4.554473        -1.121864        -1.516545
 C         3.465024        -0.509320        -0.588230
 O         2.183315        -0.409058        -1.182845
 C         1.520078         0.219365        -0.093346
 C        -0.007034         0.135636        -0.420756
 C         2.346373         1.460632         0.283513
 C         3.645651         0.667072         0.332287
 C         3.172634        -0.644118         0.851831
 O         1.796621        -0.558177         1.035364
 H         5.033455        -2.017452        -1.111527
 H         4.026033        -1.661659        -2.321794
 H         5.134582        -0.298433        -1.757967
 H        -0.606938         0.364369         0.531998
 H        -0.173510         0.737569        -1.301353
 H        -0.360285        -0.956666        -0.525225
 H         2.379305         2.429281        -0.365976
 H         1.987167         1.749022         1.308896
 H         4.515181         1.175700         0.750913
 H         3.705572        -1.280153         1.644878
