19
Iteration:   823
 C         4.635398        -0.955949        -1.438853
 C         3.438648        -0.585757        -0.624439
 O         2.187241        -0.312675        -1.289691
 C         1.495490         0.316325        -0.015739
 C         0.018649         0.292555        -0.406895
 C         2.406492         1.490058         0.288813
 C         3.644429         0.538667         0.513419
 C         3.152213        -0.823728         0.809841
 O         1.660240        -0.737613         0.973370
 H         4.627898        -0.565342        -2.521080
 H         5.676464        -0.699330        -0.975778
 H         4.689365        -2.071330        -1.484652
 H        -0.699256         0.434339         0.356557
 H        -0.342135         0.787854        -1.318339
 H        -0.236092        -0.680396        -0.607106
 H         2.438198         1.919651        -0.695790
 H         2.063436         2.185006         1.083741
 H         4.666765         0.873007         0.849370
 H         3.736900        -1.395342         1.540546
