19
Iteration:  3986charge 0 multiplicity 1
 C         4.533394        -1.212147        -1.352519
 C         3.517000        -0.445096        -0.623170
 O         2.205854        -0.300100        -1.237971
 C         1.448161         0.164069        -0.040817
 C        -0.029926         0.263055        -0.419353
 C         2.188974         1.471865         0.242320
 C         3.576054         0.793135         0.379732
 C         3.335422        -0.683446         0.840835
 O         1.842317        -0.794761         1.028117
 H         4.452395        -2.276823        -1.107299
 H         4.441876        -1.324166        -2.628976
 H         5.590643        -0.841381        -1.333436
 H        -0.507837         0.657481         0.447878
 H        -0.047720         0.932903        -1.293001
 H        -0.386017        -0.733828        -0.610721
 H         2.175261         2.108708        -0.684174
 H         1.938044         2.097271         1.077324
 H         4.518262         1.270160         0.502066
 H         3.909221        -1.339222         1.348906
