19
Iteration:  2761charge 0 multiplicity 1
 C         4.645430        -1.140958        -1.405880
 C         3.525331        -0.486931        -0.617332
 O         2.296718        -0.147821        -1.308219
 C         1.466134         0.238247        -0.120216
 C        -0.015558         0.553566        -0.373715
 C         2.335582         1.315295         0.512898
 C         3.560478         0.566793         0.592648
 C         3.122576        -0.857957         0.757941
 O         1.687751        -0.840011         0.739630
 H         4.494204        -1.251370        -2.443399
 H         5.562222        -0.719786        -1.029485
 H         4.821189        -2.255027        -1.297037
 H        -0.423805         0.866298         0.636642
 H        -0.124626         1.370726        -1.176321
 H        -0.494460        -0.374578        -0.694534
 H         2.575838         2.117212        -0.080254
 H         1.875532         1.583159         1.415320
 H         4.440277         1.152801         0.926408
 H         3.524159        -1.690359         1.350578
