19
Iteration:  1668
 C         4.607536        -1.063270        -1.374473
 C         3.510048        -0.404740        -0.614610
 O         2.269474        -0.031853        -1.251678
 C         1.393340         0.195075         0.002302
 C         0.149251         0.748864        -0.583090
 C         2.475956         1.352921         0.652552
 C         3.556803         0.372104         0.666345
 C         3.017209        -1.019623         0.649278
 O         1.620390        -0.997282         0.671907
 H         4.873003        -2.175990        -0.974175
 H         4.031521        -1.105201        -2.358918
 H         5.593389        -0.474404        -1.487078
 H        -0.685690         1.064215         0.086040
 H         0.702869         1.631406        -1.067470
 H        -0.352536         0.066714        -1.341961
 H         2.668930         2.196932         0.150559
 H         2.172990         1.608826         1.645310
 H         4.483326         0.501689         1.289472
 H         3.428261        -1.779378         1.224464
