19
Iteration:   128
 C         4.594876        -1.150439        -1.431937
 C         3.542211        -0.483916        -0.548392
 O         2.267231        -0.639492        -1.197728
 C         1.508326         0.092583        -0.203402
 C        -0.003222        -0.072524        -0.006899
 C         2.076547         1.460272        -0.069410
 C         3.504048         0.908475         0.169895
 C         3.271110        -0.422584         0.901569
 O         1.886965        -0.421941         1.073835
 H         4.202609        -1.074184        -2.504734
 H         5.588492        -0.634984        -1.390430
 H         4.786926        -2.241922        -1.262006
 H        -0.330725         0.609490         0.796473
 H        -0.564945         0.169873        -0.952867
 H        -0.212598        -1.103637         0.330771
 H         1.983463         2.161876        -0.877832
 H         1.685836         1.868979         0.937353
 H         4.405333         1.477274         0.199104
 H         3.752670        -0.979087         1.647412
