19
Iteration:  2870
 C         4.611314        -0.998974        -1.512872
 C         3.535859        -0.550379        -0.542096
 O         2.275205        -0.265756        -1.278402
 C         1.455770         0.307185        -0.141403
 C         0.019920         0.507207        -0.412668
 C         2.354485         1.412427         0.393309
 C         3.578504         0.521142         0.583928
 C         3.108837        -0.866467         0.847459
 O         1.686867        -0.893402         0.850258
 H         5.378278        -0.263195        -1.505674
 H         5.065213        -1.954990        -1.111571
 H         4.012517        -1.231226        -2.447536
 H        -0.387388         0.702486         0.576474
 H        -0.146007         1.265364        -1.180519
 H        -0.487879        -0.221728        -0.948702
 H         2.610018         2.120844        -0.357552
 H         2.124831         1.850070         1.344769
 H         4.506005         1.095551         0.992678
 H         3.635935        -1.561518         1.573500
