19
Iteration:  1466charge 0 multiplicity 1
 C         4.649894        -1.062166        -1.455076
 C         3.501374        -0.468737        -0.629210
 O         2.350088        -0.062773        -1.327355
 C         1.580261         0.329383        -0.241879
 C         0.175471         0.746448        -0.489976
 C         2.392873         1.225499         0.697310
 C         3.527153         0.318498         0.685575
 C         2.944134        -1.032987         0.751769
 O         1.525233        -0.847766         0.746571
 H         5.333128        -1.559012        -0.797674
 H         4.309507        -1.909844        -2.130300
 H         5.085959        -0.210211        -1.989094
 H        -0.203183         0.925282         0.508623
 H         0.040088         1.718800        -1.017192
 H        -0.470892         0.057536        -0.948192
 H         2.546603         2.282960         0.360311
 H         1.880923         1.124942         1.650560
 H         4.476274         0.578774         1.208268
 H         3.421445        -1.862741         1.287836
