19
Iteration:  4888
 C         4.614230        -1.131705        -1.375112
 C         3.573077        -0.450935        -0.579604
 O         2.176111        -0.513072        -1.158870
 C         1.454063         0.100314        -0.061995
 C        -0.056020         0.145990        -0.213003
 C         2.206943         1.487159        -0.053024
 C         3.541369         0.877306         0.234735
 C         3.286725        -0.616985         0.878721
 O         1.862707        -0.641670         1.066132
 H         5.257440        -1.868194        -0.847012
 H         4.104205        -1.779052        -2.091391
 H         5.206539        -0.397208        -2.085448
 H        -0.562903         0.591099         0.699175
 H        -0.157969         0.814133        -1.144653
 H        -0.374549        -0.904610        -0.386695
 H         2.105187         1.991023        -0.964077
 H         1.839032         2.122083         0.660781
 H         4.408891         1.280177         0.628616
 H         3.795356        -1.059331         1.729510
