19
Iteration:  3202charge 0 multiplicity 1
 C         4.592394        -1.116454        -1.356404
 C         3.443242        -0.459882        -0.625841
 O         2.149264        -0.286238        -1.237382
 C         1.478613         0.207829        -0.030552
 C         0.034274         0.280482        -0.389923
 C         2.300106         1.455207         0.284653
 C         3.617220         0.670889         0.379995
 C         3.195965        -0.739402         0.810230
 O         1.807756        -0.765708         0.944630
 H         5.283331        -0.361742        -1.875517
 H         5.130318        -1.868410        -0.688121
 H         4.217575        -1.813169        -2.116456
 H        -0.446126         0.601212         0.517989
 H         0.111862         0.872796        -1.238490
 H        -0.433950        -0.627665        -0.733870
 H         2.139195         2.115614        -0.558857
 H         2.013880         1.911313         1.166090
 H         4.591841         1.017335         0.556172
 H         3.818049        -1.348597         1.467729
