19
Iteration:  4740
 C         4.586377        -1.167684        -1.321761
 C         3.487033        -0.495310        -0.635366
 O         2.100370        -0.396858        -1.156852
 C         1.454292         0.103718        -0.064893
 C        -0.005182         0.119931        -0.295143
 C         2.244741         1.498170         0.120825
 C         3.631964         0.877230         0.207650
 C         3.224832        -0.601597         0.818247
 O         1.909035        -0.680010         1.041108
 H         5.537980        -0.718649        -0.955268
 H         4.584609        -2.321547        -1.062672
 H         4.556174        -1.028210        -2.382618
 H        -0.464848         0.709138         0.508246
 H        -0.185307         0.541996        -1.305397
 H        -0.422673        -0.844007        -0.426143
 H         2.139878         2.021776        -0.938033
 H         1.959471         1.988621         1.153237
 H         4.523869         1.336784         0.487220
 H         3.815212        -1.218073         1.499215
