19
Iteration:  4397charge 0 multiplicity 1
 C         4.586642        -1.057858        -1.530530
 C         3.556574        -0.528709        -0.569734
 O         2.232664        -0.587338        -1.164021
 C         1.442492         0.090413        -0.140659
 C        -0.064456         0.144967        -0.276729
 C         2.266763         1.471722         0.078485
 C         3.553578         0.725091         0.230114
 C         3.267074        -0.515875         1.017129
 O         1.820531        -0.552740         1.082885
 H         4.307900        -2.075064        -1.828900
 H         4.509260        -0.474544        -2.433823
 H         5.714339        -1.009395        -1.130315
 H        -0.466802         0.589127         0.593426
 H        -0.381060         0.749626        -1.091349
 H        -0.557057        -0.785310        -0.297767
 H         2.111730         2.185703        -0.795954
 H         2.057456         2.150920         0.930922
 H         4.504475         1.199703         0.499449
 H         3.732398        -1.003509         1.838753
