19
Iteration:  4503charge 0 multiplicity 1
 C         4.563556        -1.069915        -1.482748
 C         3.546782        -0.519003        -0.564027
 O         2.155792        -0.535044        -1.088729
 C         1.452826         0.129316        -0.075960
 C        -0.058142         0.040813        -0.300341
 C         2.247290         1.485566         0.004276
 C         3.640273         0.824608         0.246690
 C         3.252731        -0.506433         0.921407
 O         1.849965        -0.593689         1.117687
 H         4.072448        -1.680491        -2.268293
 H         5.204083        -0.372680        -2.057146
 H         5.214128        -1.768479        -1.091405
 H        -0.494915         0.576021         0.605871
 H        -0.182151         0.716641        -1.211855
 H        -0.364542        -0.993740        -0.545722
 H         2.248658         1.848708        -0.994242
 H         1.948866         2.182172         0.805020
 H         4.519371         1.480778         0.427632
 H         3.682995        -1.299511         1.567428
