19
Iteration:   971charge 0 multiplicity 1
 C         4.526147        -0.941428        -1.446896
 C         3.452539        -0.496069        -0.539619
 O         2.256541        -0.252196        -1.176334
 C         1.473355         0.220040        -0.128436
 C         0.113461         0.564405        -0.508150
 C         2.344406         1.363735         0.330506
 C         3.579834         0.506350         0.580924
 C         3.128596        -0.849020         0.829158
 O         1.730443        -0.933753         0.885700
 H         5.509840        -0.432246        -1.335691
 H         4.742493        -2.045164        -1.310544
 H         4.314051        -0.965681        -2.572789
 H        -0.522386         0.834884         0.363010
 H         0.117381         1.435312        -1.234586
 H        -0.471901        -0.230570        -1.066536
 H         2.443452         2.025960        -0.506042
 H         2.001320         1.873419         1.230747
 H         4.597122         0.865963         0.920257
 H         3.737058        -1.562440         1.435124
