19
Iteration:  3678
 C         4.497402        -1.170831        -1.432545
 C         3.504918        -0.470207        -0.630742
 O         2.203211        -0.381851        -1.182832
 C         1.430330         0.155374        -0.048449
 C         0.014768         0.196843        -0.480416
 C         2.300762         1.495551         0.268495
 C         3.573959         0.740998         0.327094
 C         3.271470        -0.617929         0.847222
 O         1.828195        -0.687474         1.083412
 H         4.795192        -2.142148        -0.909838
 H         4.038933        -1.641870        -2.367477
 H         5.377093        -0.369931        -1.633033
 H        -0.793540         0.487755         0.216635
 H        -0.059029         0.796075        -1.345137
 H        -0.328519        -0.816219        -0.646905
 H         2.294379         2.312342        -0.470831
 H         2.148818         1.924699         1.216582
 H         4.589946         1.168134         0.594988
 H         3.994685        -1.315216         1.412294
