19
Iteration:   422charge 0 multiplicity 1
 C         4.538882        -1.143438        -1.379162
 C         3.470551        -0.410973        -0.625325
 O         2.189286        -0.462309        -1.144712
 C         1.442259         0.057684         0.021819
 C        -0.082917         0.158362        -0.397680
 C         2.185149         1.455681         0.048528
 C         3.640649         0.927952         0.215140
 C         3.368684        -0.511970         0.860642
 O         1.878444        -0.812908         1.170311
 H         4.020978        -1.937514        -2.001509
 H         5.153627        -0.582104        -2.109433
 H         5.194656        -1.758184        -0.786650
 H        -0.517242         0.526228         0.543033
 H         0.022809         0.780096        -1.258876
 H        -0.529592        -0.809037        -0.721532
 H         2.074772         1.962566        -0.957415
 H         2.075232         2.381465         0.728850
 H         4.318721         1.701020         0.448622
 H         4.029079        -1.017664         1.469100
