19
Iteration:  4077
 C         4.586557        -1.019166        -1.501275
 C         3.453051        -0.546329        -0.548563
 O         2.205987        -0.518370        -1.105789
 C         1.464404         0.151002        -0.131657
 C         0.018738         0.256384        -0.407649
 C         2.287514         1.463766         0.139652
 C         3.578634         0.710389         0.308286
 C         3.218010        -0.686389         0.921356
 O         1.811364        -0.643578         1.059035
 H         4.003621        -1.137147        -2.453885
 H         5.431583        -0.116682        -1.650167
 H         5.055644        -1.951699        -1.088024
 H        -0.572375         0.662575         0.433434
 H        -0.065100         0.899524        -1.255763
 H        -0.454002        -0.691063        -0.609915
 H         2.334555         2.205229        -0.600934
 H         2.076487         1.914048         1.124941
 H         4.555456         1.272766         0.389550
 H         3.756721        -1.182017         1.782207
