19
Iteration:   914
 C         4.607679        -1.104611        -1.388874
 C         3.473062        -0.467033        -0.599365
 O         2.257957        -0.196537        -1.349617
 C         1.452296         0.260286        -0.146192
 C         0.017039         0.311076        -0.395017
 C         2.364357         1.418445         0.468643
 C         3.656843         0.579466         0.533109
 C         3.081486        -0.832565         0.815960
 O         1.719100        -0.733363         0.861156
 H         4.913267        -2.106744        -0.959227
 H         4.201756        -1.580254        -2.427931
 H         5.474974        -0.388247        -1.519604
 H        -0.528555         0.561868         0.560557
 H        -0.092232         1.015085        -1.208827
 H        -0.312529        -0.735128        -0.723472
 H         2.440303         2.290885        -0.192567
 H         2.100998         1.684254         1.428645
 H         4.523899         1.112215         0.772110
 H         3.493908        -1.700462         1.298429
