19
Iteration:  4605charge 0 multiplicity 1
 C         4.508175        -1.246680        -1.348157
 C         3.493423        -0.353909        -0.592285
 O         2.219881        -0.420687        -1.228639
 C         1.456982         0.221136        -0.073992
 C        -0.067829         0.047737        -0.271593
 C         2.269613         1.490509         0.113061
 C         3.592055         0.835305         0.248469
 C         3.261815        -0.545343         0.838885
 O         1.913451        -0.694725         1.038484
 H         4.604823        -2.128308        -0.713182
 H         4.173021        -1.747899        -2.210417
 H         5.528972        -0.707326        -1.465478
 H        -0.656507         0.495079         0.559823
 H        -0.384338         0.376293        -1.256048
 H        -0.210831        -1.081946        -0.264623
 H         2.020520         2.234960        -0.831891
 H         1.988597         2.099604         0.999105
 H         4.427623         1.372740         0.591303
 H         3.894017        -1.195529         1.339520
