19
Iteration:   561
 C         4.589368        -1.110802        -1.427738
 C         3.460583        -0.382449        -0.603322
 O         2.183324        -0.454576        -1.178961
 C         1.489901         0.087148        -0.119102
 C        -0.009266         0.166246        -0.407782
 C         2.265921         1.504773         0.187210
 C         3.566483         0.789722         0.294609
 C         3.253961        -0.659976         0.885956
 O         1.850698        -0.698285         1.107188
 H         5.277173        -0.296625        -1.605074
 H         4.777458        -2.076679        -0.950212
 H         4.174428        -1.455740        -2.401285
 H        -0.564291         0.597478         0.493159
 H        -0.118092         0.899095        -1.242619
 H        -0.414113        -0.854067        -0.740408
 H         2.201700         2.138078        -0.632642
 H         2.098656         1.964036         1.215695
 H         4.474243         1.387650         0.498130
 H         3.831126        -1.346541         1.480153
