19
Iteration:  4220charge 0 multiplicity 1
 C         4.614828        -1.054571        -1.517845
 C         3.507164        -0.483581        -0.550889
 O         2.155921        -0.545008        -1.102392
 C         1.445351         0.095527         0.026697
 C         0.007649         0.278828        -0.379739
 C         2.272357         1.463043         0.033220
 C         3.620703         0.777968         0.285639
 C         3.306409        -0.653965         0.905970
 O         1.780009        -0.677541         1.114747
 H         5.332797        -0.232415        -1.457133
 H         4.655717        -2.190779        -1.365462
 H         4.185161        -0.973523        -2.524974
 H        -0.709967         0.719493         0.278979
 H        -0.067602         0.850456        -1.297520
 H        -0.381602        -0.648296        -0.708503
 H         2.223140         1.895192        -0.925736
 H         1.904895         2.057412         0.880567
 H         4.329960         1.552521         0.479482
 H         3.945935        -1.307826         1.500583
