19
Iteration:   451charge 0 multiplicity 1
 C         4.520963        -1.123330        -1.415265
 C         3.499444        -0.447395        -0.634072
 O         2.200901        -0.521649        -1.163301
 C         1.479005         0.160764        -0.123566
 C         0.061350         0.088052        -0.344233
 C         2.170752         1.433854         0.151529
 C         3.578497         0.759418         0.236046
 C         3.303808        -0.544650         0.897967
 O         1.844746        -0.550764         1.088375
 H         4.323046        -2.177532        -1.457451
 H         4.463354        -0.924883        -2.484747
 H         5.575546        -0.951791        -1.130050
 H        -0.583911         0.521742         0.506360
 H        -0.184438         0.535611        -1.352046
 H        -0.340962        -0.988447        -0.416903
 H         2.087688         2.342966        -0.372334
 H         1.926320         1.781156         1.216358
 H         4.424371         1.386377         0.476445
 H         3.900082        -1.035810         1.672949
