19
Iteration:   925
 C         4.629130        -1.115741        -1.416989
 C         3.495587        -0.512080        -0.642691
 O         2.213781        -0.193037        -1.271850
 C         1.535150         0.284785        -0.206095
 C         0.023495         0.294694        -0.413125
 C         2.327703         1.431938         0.476125
 C         3.641992         0.536333         0.548138
 C         3.124235        -0.881693         0.774318
 O         1.677485        -0.654232         0.871518
 H         5.301221        -1.677771        -0.700741
 H         4.305114        -1.622576        -2.469623
 H         5.316623        -0.280912        -1.809757
 H        -0.439404         0.556949         0.588824
 H        -0.465032         0.978387        -1.094025
 H        -0.331077        -0.761030        -0.694262
 H         2.545380         2.337169        -0.095466
 H         1.864892         1.663335         1.367085
 H         4.578131         0.682264         0.974380
 H         3.417810        -1.522711         1.571628
