19
Iteration:  4497
 C         4.532969        -1.114982        -1.495613
 C         3.543001        -0.491609        -0.570272
 O         2.160780        -0.557378        -1.129482
 C         1.450578         0.138847        -0.092112
 C        -0.051365         0.057856        -0.298549
 C         2.268084         1.460759         0.034676
 C         3.638725         0.874336         0.254749
 C         3.275758        -0.510745         0.959394
 O         1.853258        -0.578595         1.070010
 H         4.088210        -1.779454        -2.241301
 H         5.179000        -0.311274        -1.859851
 H         5.277319        -1.957372        -1.099645
 H        -0.609938         0.374192         0.554346
 H        -0.358092         0.683167        -1.100190
 H        -0.304753        -1.009362        -0.270657
 H         2.196622         2.124408        -0.949139
 H         1.822596         2.090196         0.817218
 H         4.469116         1.467710         0.608244
 H         3.809251        -1.229549         1.669870
