19
Iteration:  1595
 C         4.608548        -0.984938        -1.383286
 C         3.478056        -0.516583        -0.561869
 O         2.298094         0.073530        -1.278923
 C         1.529761         0.343646        -0.135203
 C         0.126191         0.700599        -0.578743
 C         2.500415         1.348410         0.594290
 C         3.602283         0.223509         0.765578
 C         2.921732        -1.170581         0.654248
 O         1.549959        -0.945698         0.750055
 H         5.543996        -0.690934        -0.917674
 H         4.519401        -1.950088        -1.717548
 H         4.486659        -0.394457        -2.280763
 H        -0.501625         1.069006         0.223529
 H         0.278315         1.534012        -1.308579
 H        -0.360940        -0.134177        -0.995349
 H         2.769186         2.331840        -0.004753
 H         2.167413         1.684738         1.606046
 H         4.667791         0.367730         1.043325
 H         3.332196        -1.947133         1.225870
