19
Iteration:  4118charge 0 multiplicity 1
 C         4.530197        -1.166432        -1.449322
 C         3.558615        -0.398039        -0.593256
 O         2.217441        -0.428167        -1.151203
 C         1.479465         0.150333        -0.060093
 C         0.009170         0.199861        -0.399463
 C         2.272458         1.489290         0.152296
 C         3.559104         0.749373         0.322250
 C         3.270580        -0.626557         0.873877
 O         1.787240        -0.729500         1.028375
 H         4.311033        -1.113331        -2.490722
 H         5.501838        -0.754344        -1.332781
 H         4.372501        -2.181009        -1.134338
 H        -0.527829         0.638210         0.458835
 H        -0.113750         0.940079        -1.181366
 H        -0.557960        -0.745241        -0.449358
 H         2.248725         2.129323        -0.737940
 H         1.916168         1.977106         1.112623
 H         4.458998         1.369273         0.576259
 H         3.847914        -1.264826         1.669702
