19
Iteration:  2589charge 0 multiplicity 1
 C         4.571840        -1.038004        -1.454598
 C         3.557391        -0.422008        -0.558418
 O         2.298782        -0.147268        -1.284047
 C         1.483625         0.240119        -0.024320
 C         0.002674         0.409413        -0.419155
 C         2.356371         1.366202         0.384763
 C         3.588175         0.529317         0.598931
 C         3.086822        -0.956529         0.793659
 O         1.675813        -0.788329         0.812150
 H         5.315764        -0.322478        -1.803909
 H         5.189531        -1.904215        -1.164880
 H         3.998585        -1.490653        -2.230345
 H        -0.520049         0.844440         0.434219
 H         0.243369         1.073055        -1.316336
 H        -0.502281        -0.421987        -0.866135
 H         2.596030         1.954995        -0.582987
 H         2.009976         1.812967         1.365170
 H         4.446808         0.834983         1.108658
 H         3.547031        -1.701636         1.433287
