19
Iteration:  3966charge 0 multiplicity 1
 C         4.508472        -1.106937        -1.402481
 C         3.477241        -0.418651        -0.662103
 O         2.158956        -0.319559        -1.164984
 C         1.454202         0.170535        -0.006326
 C         0.022043         0.169733        -0.447989
 C         2.298691         1.441952         0.207996
 C         3.708729         0.708896         0.356497
 C         3.168909        -0.657016         0.880174
 O         1.832948        -0.744493         1.036531
 H         4.783121        -2.067249        -0.999939
 H         4.210961        -1.455613        -2.484302
 H         5.440098        -0.585228        -1.646234
 H        -0.596909         0.662589         0.213566
 H         0.037390         0.855852        -1.296804
 H        -0.198237        -0.776710        -0.914380
 H         2.200021         2.038668        -0.633105
 H         2.003264         2.011223         1.091416
 H         4.569931         1.121732         0.756775
 H         3.702957        -1.231717         1.546124
