19
Iteration:  3374charge 0 multiplicity 1
 C         4.529261        -1.159773        -1.541364
 C         3.505450        -0.466090        -0.552890
 O         2.215461        -0.350262        -1.210724
 C         1.538986         0.224416        -0.144585
 C        -0.041524         0.163803        -0.397275
 C         2.359056         1.491504         0.279689
 C         3.622145         0.700819         0.366170
 C         3.186072        -0.642991         0.932193
 O         1.751586        -0.656252         1.037259
 H         5.092898        -2.012722        -1.127960
 H         3.960773        -1.852139        -2.189058
 H         5.137853        -0.460010        -2.017412
 H        -0.621746         0.359322         0.586352
 H        -0.292947         0.671265        -1.344546
 H        -0.101654        -1.005765        -0.456515
 H         2.197459         2.324944        -0.514696
 H         1.893051         1.868432         1.262609
 H         4.671684         1.081901         0.369249
 H         3.881037        -1.352842         1.586875
