19
Iteration:  2968
 C         4.514530        -1.061047        -1.511223
 C         3.484138        -0.470738        -0.510119
 O         2.203393        -0.163068        -1.191156
 C         1.512852         0.262689        -0.146155
 C         0.055959         0.388856        -0.495250
 C         2.382099         1.400719         0.330168
 C         3.666786         0.580726         0.595975
 C         3.132442        -0.909034         0.876706
 O         1.732678        -0.852371         0.890846
 H         5.373258        -1.643083        -1.172983
 H         3.838234        -1.772172        -2.170000
 H         4.924963        -0.103782        -2.090552
 H        -0.461987         0.791333         0.344613
 H        -0.034556         0.932286        -1.461202
 H        -0.483600        -0.441199        -0.865964
 H         2.476226         2.114875        -0.520157
 H         1.881156         1.816851         1.263227
 H         4.611821         1.019328         0.913270
 H         3.596412        -1.526210         1.566785
