19
Iteration:  2459
 C         4.653813        -1.134456        -1.423288
 C         3.520660        -0.488878        -0.688816
 O         2.250526        -0.096370        -1.290920
 C         1.493037         0.237749        -0.152867
 C        -0.025982         0.543519        -0.451091
 C         2.316959         1.303686         0.587759
 C         3.641073         0.507617         0.521699
 C         3.091942        -0.835849         0.838675
 O         1.689328        -0.874283         0.789158
 H         4.366187        -1.555054        -2.424511
 H         5.562082        -0.318233        -1.292020
 H         4.861869        -2.062986        -0.851889
 H        -0.438262         0.963792         0.440534
 H        -0.005166         1.346385        -1.215698
 H        -0.493852        -0.328733        -0.799233
 H         2.444447         2.356993         0.061315
 H         1.867157         1.563965         1.611141
 H         4.665922         0.806838         0.833745
 H         3.514299        -1.595171         1.545438
