19
Iteration:  3863
 C         4.609517        -1.163398        -1.392587
 C         3.501151        -0.466578        -0.665696
 O         2.205087        -0.413724        -1.316329
 C         1.482867         0.163310        -0.133667
 C        -0.024128         0.347048        -0.341568
 C         2.232271         1.391477         0.398794
 C         3.635566         0.735314         0.327757
 C         3.168207        -0.672873         0.852968
 O         1.790771        -0.667279         0.976447
 H         5.640313        -0.713805        -1.103537
 H         4.889015        -2.186120        -0.996442
 H         4.665633        -1.190777        -2.521287
 H        -0.566153         0.697173         0.556633
 H        -0.005306         0.940795        -1.206266
 H        -0.468316        -0.624371        -0.424953
 H         1.959831         2.333158        -0.189705
 H         1.903782         1.499937         1.449958
 H         4.637682         1.085289         0.512837
 H         3.824626        -1.305944         1.479251
