19
Iteration:  2080charge 0 multiplicity 1
 C         4.616337        -0.998720        -1.391599
 C         3.486690        -0.525984        -0.594028
 O         2.284515        -0.121255        -1.292860
 C         1.507910         0.356492        -0.199701
 C         0.085939         0.614868        -0.469232
 C         2.460320         1.316365         0.608628
 C         3.657101         0.305386         0.616596
 C         2.982602        -1.000822         0.776507
 O         1.565529        -0.791299         0.690705
 H         4.194297        -1.421645        -2.337907
 H         5.433898        -0.175969        -1.579226
 H         5.177088        -1.769988        -0.831967
 H        -0.335231         0.690446         0.519121
 H        -0.249047         1.453551        -1.086192
 H        -0.385017        -0.255599        -0.801958
 H         2.793706         2.284905         0.239319
 H         1.994061         1.312323         1.598732
 H         4.657807         0.681768         0.906978
 H         3.232816        -1.760085         1.503973
