19
Iteration:  4238charge 0 multiplicity 1
 C         4.574539        -1.021473        -1.537222
 C         3.458468        -0.555409        -0.573657
 O         2.161011        -0.567632        -1.131827
 C         1.451741         0.148087        -0.132897
 C        -0.001230         0.203381        -0.407885
 C         2.259090         1.442221         0.156428
 C         3.591670         0.726113         0.273109
 C         3.220033        -0.558580         0.941258
 O         1.887204        -0.600426         1.126099
 H         5.523539        -0.603937        -1.154678
 H         4.576168        -2.120919        -1.479480
 H         4.480538        -0.725334        -2.567988
 H        -0.517878         0.598867         0.517023
 H        -0.105093         0.915452        -1.260963
 H        -0.405896        -0.891859        -0.539200
 H         2.284149         2.156479        -0.712249
 H         2.034350         1.930324         1.247017
 H         4.647471         0.980952         0.359735
 H         3.742096        -0.919115         1.738114
