19
Iteration:  4949charge 0 multiplicity 1
 C         4.496537        -1.264425        -1.400365
 C         3.494038        -0.444894        -0.582284
 O         2.213906        -0.420254        -1.148194
 C         1.467036         0.131582        -0.098461
 C        -0.074550         0.035868        -0.407615
 C         2.254338         1.527677         0.153210
 C         3.629616         0.921974         0.215920
 C         3.280625        -0.553704         0.865657
 O         1.896429        -0.624120         1.121175
 H         5.466360        -1.004031        -1.019570
 H         4.148121        -2.297985        -1.426804
 H         4.544673        -0.831818        -2.322702
 H        -0.701518         0.489766         0.302511
 H        -0.382525         0.191184        -1.372769
 H        -0.246889        -1.036461        -0.346155
 H         2.188285         2.080480        -0.835750
 H         1.871793         1.903104         1.205055
 H         4.599777         1.387451         0.329931
 H         3.864778        -1.163432         1.650643
