19
Iteration:  3618charge 0 multiplicity 1
 C         4.645215        -1.094731        -1.493532
 C         3.554552        -0.506868        -0.531364
 O         2.189089        -0.480453        -1.215252
 C         1.472573         0.152946        -0.168469
 C        -0.060907         0.263032        -0.273254
 C         2.279827         1.446373         0.183560
 C         3.676718         0.682812         0.323215
 C         3.177541        -0.678670         0.903144
 O         1.706419        -0.575395         0.997061
 H         5.399932        -1.564276        -0.837932
 H         4.332382        -1.739740        -2.331544
 H         5.277487        -0.332431        -1.957889
 H        -0.314604         0.641419         0.731594
 H        -0.555565         0.904939        -1.077831
 H        -0.219947        -0.801390        -0.559620
 H         2.338577         2.354738        -0.497567
 H         1.956448         1.760130         1.244239
 H         4.607811         1.052751         0.509834
 H         3.582444        -1.313046         1.625342
