19
Iteration:  3669charge 0 multiplicity 1
 C         4.490240        -1.157868        -1.412508
 C         3.486078        -0.393292        -0.603247
 O         2.186039        -0.385825        -1.116018
 C         1.448592         0.154165         0.027727
 C        -0.002503         0.214662        -0.506755
 C         2.297403         1.489059         0.228498
 C         3.599697         0.757912         0.301706
 C         3.243003        -0.667436         0.835819
 O         1.854388        -0.747285         1.048676
 H         4.954552        -2.001062        -0.911768
 H         3.937143        -1.415658        -2.399494
 H         5.429307        -0.763781        -1.837582
 H        -0.689288         0.633164         0.324824
 H         0.107339         0.850260        -1.410579
 H        -0.238591        -0.838276        -0.846213
 H         2.437334         2.104670        -0.721611
 H         2.000873         2.048838         1.068562
 H         4.499758         1.291744         0.532840
 H         3.846909        -1.297002         1.513821
