19
Iteration:  2042
 C         4.685843        -1.025943        -1.362857
 C         3.472449        -0.458475        -0.654140
 O         2.283428         0.051922        -1.253314
 C         1.477727         0.276771        -0.056550
 C         0.068984         0.656331        -0.458049
 C         2.454328         1.267930         0.503540
 C         3.601290         0.298003         0.648158
 C         3.005586        -1.052359         0.710409
 O         1.546316        -0.879483         0.710162
 H         4.487113        -2.076467        -1.580260
 H         4.964806        -0.517424        -2.243368
 H         5.498594        -1.069117        -0.621073
 H        -0.527781         1.031830         0.442149
 H         0.109581         1.457162        -1.231570
 H        -0.289100        -0.339334        -0.993786
 H         2.613400         2.115606        -0.191292
 H         2.388197         1.830732         1.458012
 H         4.641782         0.363943         0.891223
 H         3.315743        -1.851298         1.462781
