19
Iteration:  2756charge 0 multiplicity 1
 C         4.651258        -1.116121        -1.383358
 C         3.529152        -0.469525        -0.625566
 O         2.276964        -0.132912        -1.311760
 C         1.470194         0.284207        -0.091247
 C        -0.004752         0.558254        -0.395610
 C         2.331503         1.304697         0.467690
 C         3.595179         0.554491         0.581245
 C         3.100402        -0.872317         0.755697
 O         1.665175        -0.891391         0.778643
 H         4.398922        -1.162802        -2.491983
 H         5.589509        -0.648868        -1.005929
 H         4.671104        -2.209957        -1.132650
 H        -0.327203         0.739692         0.607480
 H        -0.127911         1.236968        -1.191573
 H        -0.337513        -0.415857        -0.794357
 H         2.570111         2.209603        -0.222325
 H         2.069392         1.607500         1.563175
 H         4.529176         1.045550         0.811078
 H         3.494056        -1.686740         1.348695
