19
Iteration:  1814
 C         4.528536        -1.002549        -1.464325
 C         3.511193        -0.406875        -0.569224
 O         2.370132         0.058957        -1.214847
 C         1.475907         0.245212        -0.121800
 C         0.120303         0.593848        -0.548537
 C         2.446685         1.307346         0.522741
 C         3.622420         0.339093         0.714586
 C         2.984707        -1.078664         0.762170
 O         1.566936        -0.915580         0.759483
 H         3.996875        -1.240172        -2.462113
 H         5.280741        -0.177779        -1.733295
 H         4.931886        -1.978749        -1.085730
 H        -0.434901         0.971696         0.329043
 H         0.149519         1.337614        -1.329309
 H        -0.464043        -0.271643        -0.976589
 H         2.900630         1.936860        -0.266634
 H         2.208566         1.749854         1.463450
 H         4.472872         0.649231         1.365781
 H         3.367630        -1.988834         1.110574
