19
Iteration:  1702
 C         4.535192        -0.991617        -1.475196
 C         3.489428        -0.519983        -0.557498
 O         2.378417        -0.013898        -1.252880
 C         1.538037         0.315819        -0.220707
 C         0.116155         0.608240        -0.590155
 C         2.406898         1.202441         0.660882
 C         3.621151         0.308594         0.718619
 C         2.955887        -1.049861         0.778709
 O         1.589698        -0.743618         0.751350
 H         4.733369        -2.170731        -1.565514
 H         4.088136        -0.801845        -2.478235
 H         5.513860        -0.372354        -1.525263
 H        -0.475272         0.723041         0.344588
 H         0.103360         1.657094        -1.104858
 H        -0.188115        -0.132797        -1.327975
 H         2.616316         2.192594         0.482322
 H         1.944068         1.078689         1.605594
 H         4.599078         0.594216         1.106715
 H         3.303931        -1.878079         1.383714
