19
Iteration:  1619
 C         4.697083        -1.007022        -1.482583
 C         3.509080        -0.505709        -0.583809
 O         2.399743        -0.078566        -1.283749
 C         1.527763         0.357531        -0.194646
 C         0.047277         0.627740        -0.415905
 C         2.482451         1.256074         0.697482
 C         3.672004         0.266777         0.725277
 C         2.863735        -1.073863         0.737850
 O         1.475618        -0.722437         0.558792
 H         5.414370        -1.162192        -0.781113
 H         4.430075        -1.834175        -2.112542
 H         5.018908        -0.223044        -2.128053
 H        -0.412340         0.910973         0.524623
 H        -0.121086         1.410500        -1.142076
 H        -0.406067        -0.301175        -0.656893
 H         2.543857         2.335705         0.138279
 H         1.958714         1.485188         1.680368
 H         4.525408         0.191095         1.357353
 H         3.130951        -1.803472         1.573738
