19
Iteration:  2920
 C         4.675947        -1.142691        -1.377758
 C         3.471884        -0.502980        -0.640059
 O         2.201907        -0.176517        -1.263203
 C         1.475676         0.300332        -0.221519
 C        -0.024775         0.476209        -0.388563
 C         2.332461         1.400802         0.513376
 C         3.637201         0.563714         0.467655
 C         3.144178        -0.845823         0.783731
 O         1.723793        -0.843312         0.844069
 H         5.555758        -0.582145        -0.937005
 H         4.754958        -2.203362        -1.113539
 H         4.607480        -0.875645        -2.461617
 H        -0.398631         0.666079         0.636240
 H        -0.375282         1.039044        -1.248228
 H        -0.476933        -0.478270        -0.804151
 H         2.406309         2.403536        -0.046309
 H         1.991737         1.458355         1.600180
 H         4.670956         0.831695         0.689173
 H         3.581962        -1.685247         1.417016
