19
Iteration:  3054
 C         4.653703        -1.172120        -1.402907
 C         3.508386        -0.482357        -0.629270
 O         2.200527        -0.216569        -1.268586
 C         1.488800         0.274163        -0.155935
 C         0.014582         0.332060        -0.292005
 C         2.341877         1.451927         0.333517
 C         3.586213         0.639865         0.506833
 C         3.124561        -0.795446         0.813787
 O         1.709061        -0.834086         0.857540
 H         4.293604        -2.161349        -1.637902
 H         4.835359        -0.614348        -2.313873
 H         5.680468        -1.020294        -0.961954
 H        -0.372007         0.664673         0.657123
 H        -0.177810         1.194310        -0.969565
 H        -0.304314        -0.615486        -0.648158
 H         2.436093         2.143044        -0.559977
 H         2.004944         2.022639         1.302357
 H         4.433266         1.010759         0.982958
 H         3.678305        -1.543078         1.309604
