19
Iteration:  3900
 C         4.614117        -1.003614        -1.423365
 C         3.453701        -0.501446        -0.559559
 O         2.188181        -0.410449        -1.205762
 C         1.428117         0.217395        -0.022014
 C         0.005906         0.312816        -0.336274
 C         2.345330         1.452858         0.143423
 C         3.629730         0.712629         0.393411
 C         3.170381        -0.749111         0.848283
 O         1.798502        -0.820531         0.990833
 H         5.462949        -0.723664        -0.845024
 H         4.441955        -2.162091        -1.593425
 H         4.684416        -0.519531        -2.389659
 H        -0.510208         0.908577         0.330853
 H        -0.106701         1.036086        -1.169960
 H        -0.446446        -0.535387        -0.817847
 H         2.304857         1.845052        -0.835013
 H         2.021860         2.178333         0.849682
 H         4.674348         1.068528         0.539627
 H         3.601237        -1.457618         1.528786
