19
Iteration:  1408charge 0 multiplicity 1
 C         4.565109        -0.964391        -1.517747
 C         3.470230        -0.551197        -0.580527
 O         2.331984        -0.038168        -1.284420
 C         1.547683         0.353259        -0.099907
 C         0.145953         0.626234        -0.628108
 C         2.489349         1.271831         0.690885
 C         3.629189         0.312515         0.777821
 C         2.910010        -1.106465         0.682047
 O         1.545099        -0.789467         0.785828
 H         5.000380        -1.976764        -1.522176
 H         4.333303        -0.659730        -2.453912
 H         5.458636        -0.409636        -1.314143
 H        -0.491163         0.979288         0.185811
 H         0.201075         1.283624        -1.439844
 H        -0.239751        -0.379363        -0.954287
 H         2.552388         2.344404         0.161032
 H         1.940126         1.576314         1.648067
 H         4.520895         0.463051         1.339806
 H         3.278472        -2.030423         1.107193
