19
Iteration:  1319charge 0 multiplicity 1
 C         4.634004        -1.025626        -1.466262
 C         3.463095        -0.564144        -0.551606
 O         2.317760        -0.103833        -1.283135
 C         1.523706         0.275686        -0.138629
 C         0.137521         0.705888        -0.524736
 C         2.381016         1.267805         0.694561
 C         3.621740         0.413607         0.631659
 C         3.005222        -0.990873         0.764762
 O         1.584774        -0.857114         0.672714
 H         4.111253        -1.154734        -2.426376
 H         5.345097        -0.277178        -1.596016
 H         5.036825        -1.983694        -1.167879
 H        -0.521818         0.702770         0.352898
 H         0.256761         1.761064        -0.848152
 H        -0.477868         0.142944        -1.189156
 H         2.313265         2.376911         0.267341
 H         1.881613         1.238949         1.735650
 H         4.640307         0.641331         1.047629
 H         3.460275        -1.816379         1.340469
