19
Iteration:  1137charge 0 multiplicity 1
 C         4.576618        -0.918298        -1.487312
 C         3.456500        -0.546174        -0.542691
 O         2.289912        -0.152515        -1.267160
 C         1.524292         0.296024        -0.035673
 C         0.137901         0.559038        -0.540880
 C         2.424410         1.336167         0.514059
 C         3.616574         0.439531         0.626099
 C         3.005287        -0.979972         0.802503
 O         1.600373        -0.866244         0.794192
 H         4.971546        -1.975257        -1.466961
 H         4.226198        -0.834613        -2.485581
 H         5.409559        -0.208411        -1.588341
 H        -0.623068         0.605697         0.262721
 H         0.121667         1.472037        -1.176225
 H        -0.032716        -0.315476        -1.176568
 H         2.490424         2.139153        -0.131673
 H         1.926929         1.579483         1.394265
 H         4.602731         0.526420         1.026924
 H         3.441497        -1.678309         1.553535
