19
Iteration:  3257charge 0 multiplicity 1
 C         4.442988        -1.111534        -1.494130
 C         3.480272        -0.505991        -0.558855
 O         2.281456        -0.363276        -1.261308
 C         1.502133         0.186413        -0.044799
 C        -0.003833         0.250080        -0.395824
 C         2.356630         1.484232         0.237346
 C         3.593734         0.743446         0.452840
 C         3.180997        -0.725916         0.895497
 O         1.748845        -0.749556         0.998586
 H         5.425947        -0.556649        -1.646306
 H         5.100822        -1.976742        -1.240685
 H         4.002448        -1.075660        -2.514860
 H        -0.616911         0.623484         0.459685
 H         0.006566         0.991076        -1.192301
 H        -0.241456        -0.732652        -0.664174
 H         2.279888         2.038507        -0.701674
 H         2.114619         2.114159         1.017947
 H         4.533854         1.225948         0.770983
 H         3.954554        -1.449203         1.494051
