19
Iteration:  4772charge 0 multiplicity 1
 C         4.490221        -1.311952        -1.398362
 C         3.565340        -0.409192        -0.669890
 O         2.205682        -0.426679        -1.283807
 C         1.498388         0.151058        -0.131298
 C        -0.041495         0.081446        -0.318746
 C         2.216861         1.440486         0.251757
 C         3.570989         0.938071         0.304513
 C         3.242053        -0.499623         0.880252
 O         1.914532        -0.681027         1.045289
 H         5.578071        -1.166250        -1.402421
 H         4.472824        -2.337795        -0.893806
 H         4.165318        -1.431743        -2.400603
 H        -0.453160         0.650668         0.529382
 H        -0.257244         0.542300        -1.292290
 H        -0.240462        -0.955102        -0.174825
 H         2.066439         2.374853        -0.529101
 H         1.775497         2.016438         1.198985
 H         4.386775         1.434693         0.679343
 H         3.764942        -0.836085         1.755401
