19
Iteration:  2316
 C         4.605009        -1.056580        -1.395903
 C         3.515010        -0.518414        -0.628585
 O         2.276567        -0.152826        -1.341503
 C         1.519155         0.270024        -0.141051
 C         0.071923         0.562082        -0.436656
 C         2.330871         1.348809         0.596716
 C         3.626188         0.471314         0.630178
 C         3.064487        -0.942145         0.780737
 O         1.657561        -0.804938         0.698999
 H         5.214135        -1.740009        -0.822172
 H         3.909296        -1.540006        -2.193113
 H         5.320326        -0.422922        -1.944689
 H        -0.257918         0.857821         0.546045
 H         0.080616         1.399517        -1.110289
 H        -0.357770        -0.322115        -0.821082
 H         2.400276         2.465418         0.256418
 H         1.671596         1.392412         1.551980
 H         4.571056         0.577679         1.112193
 H         3.393746        -1.714876         1.501772
