19
Iteration:  3780charge 0 multiplicity 1
 C         4.653684        -1.068841        -1.504793
 C         3.473354        -0.536022        -0.582580
 O         2.150260        -0.531582        -1.206330
 C         1.449845         0.183270        -0.110921
 C         0.009958         0.262991        -0.436947
 C         2.299134         1.442973         0.351954
 C         3.644205         0.679123         0.319598
 C         3.226084        -0.609879         0.924423
 O         1.770597        -0.626387         0.986854
 H         5.429972        -1.487133        -0.846124
 H         4.087165        -1.869520        -2.111509
 H         4.899762        -0.252216        -2.141808
 H        -0.456176         0.758422         0.431959
 H        -0.305253         1.031492        -1.245883
 H        -0.489340        -0.664399        -0.831216
 H         2.248242         2.421009        -0.147682
 H         2.011056         1.554378         1.405821
 H         4.631145         1.263478         0.457297
 H         3.817981        -1.228622         1.690421
