19
Iteration:  4144
 C         4.555044        -1.205839        -1.328327
 C         3.426536        -0.473332        -0.636634
 O         2.146020        -0.319060        -1.285811
 C         1.463978         0.211693        -0.051360
 C        -0.020117         0.086950        -0.323213
 C         2.344733         1.501511         0.150959
 C         3.632130         0.777204         0.364796
 C         3.226901        -0.618802         0.827597
 O         1.876559        -0.709233         1.043021
 H         4.898498        -0.667834        -2.273532
 H         5.495939        -1.143566        -0.566324
 H         4.180076        -2.235715        -1.522322
 H        -0.727920         0.448442         0.403945
 H        -0.166060         0.708098        -1.191203
 H        -0.364555        -0.904558        -0.396693
 H         2.313953         2.093139        -0.733727
 H         1.947909         1.954320         1.028301
 H         4.506124         1.380896         0.330793
 H         3.689929        -1.280203         1.438738
