19
Iteration:  3099
 C         4.559373        -1.147464        -1.530361
 C         3.484160        -0.492664        -0.625351
 O         2.163904        -0.275351        -1.193324
 C         1.489982         0.217422        -0.078384
 C         0.081213         0.336738        -0.498400
 C         2.315180         1.450336         0.374192
 C         3.658382         0.680228         0.511251
 C         3.158406        -0.732277         0.815206
 O         1.742593        -0.808975         0.972434
 H         4.008880        -1.501164        -2.363576
 H         5.373649        -0.401120        -1.678856
 H         5.082444        -1.926044        -0.923398
 H        -0.572323         0.600587         0.328481
 H        -0.156182         1.058243        -1.263863
 H        -0.028647        -0.704505        -0.773031
 H         2.317239         2.270246        -0.386623
 H         1.834660         1.811895         1.377569
 H         4.619498         1.105074         0.781835
 H         3.737272        -1.463194         1.496779
