19
Iteration:  4848charge 0 multiplicity 1
 C         4.643589        -0.973091        -1.379297
 C         3.518627        -0.529881        -0.512387
 O         2.140865        -0.683919        -1.152808
 C         1.469923         0.115042        -0.110221
 C        -0.076659         0.229557        -0.283059
 C         2.243656         1.440896         0.030548
 C         3.605574         0.753873         0.140705
 C         3.200480        -0.656393         0.894140
 O         1.900717        -0.554635         1.089796
 H         5.555558        -1.124285        -0.818880
 H         4.332291        -1.695050        -2.140716
 H         4.855965        -0.148056        -2.016269
 H        -0.559569         0.583238         0.665648
 H        -0.189173         1.057778        -1.028365
 H        -0.447020        -0.773719        -0.510674
 H         1.899576         2.232868        -0.785776
 H         2.020839         2.008314         1.048058
 H         4.525963         1.245324         0.250338
 H         3.764008        -0.894800         1.662848
