19
Iteration:    39
 C         4.465020        -1.101890        -1.543033
 C         3.592392        -0.522340        -0.484217
 O         2.233705        -0.601251        -1.019507
 C         1.408435         0.109880        -0.083671
 C        -0.097650        -0.170060        -0.165898
 C         2.204198         1.530706        -0.202455
 C         3.543089         0.910946         0.160616
 C         3.339530        -0.377041         0.925018
 O         1.957023        -0.492971         1.122308
 H         5.303483        -0.398119        -1.800212
 H         4.895265        -2.109420        -1.192076
 H         3.802964        -1.339255        -2.444241
 H        -0.499150         0.138847         0.810189
 H        -0.685808         0.372987        -0.949760
 H        -0.277085        -1.249676        -0.218244
 H         2.207131         1.812373        -1.280870
 H         1.948279         2.232736         0.635703
 H         4.480540         1.439340         0.424179
 H         4.004869        -0.701602         1.783751
