19
Iteration:  1296charge 0 multiplicity 1
 C         4.639438        -0.948576        -1.529147
 C         3.484131        -0.485976        -0.610484
 O         2.298256        -0.066807        -1.259478
 C         1.521129         0.422219        -0.122354
 C         0.121346         0.556473        -0.604539
 C         2.503424         1.278015         0.638223
 C         3.623896         0.264916         0.667952
 C         2.911802        -1.060679         0.754947
 O         1.528218        -0.817182         0.850549
 H         4.417567        -0.727672        -2.536622
 H         5.516232        -0.411980        -1.247239
 H         4.752420        -2.014061        -1.370458
 H        -0.573551         0.473073         0.239100
 H        -0.028838         1.537562        -1.167620
 H        -0.157164        -0.289031        -1.191525
 H         2.744629         2.225803        -0.017408
 H         2.218811         1.572874         1.720011
 H         4.502489         0.648616         1.180135
 H         3.397364        -1.938068         1.273424
