19
Iteration:   502
 C         4.576665        -1.037378        -1.393549
 C         3.445764        -0.428280        -0.627708
 O         2.172198        -0.463504        -1.188259
 C         1.457929         0.121123        -0.060641
 C         0.046741         0.154708        -0.266575
 C         2.271213         1.446813         0.043166
 C         3.583336         0.794357         0.364515
 C         3.200360        -0.665006         0.852995
 O         1.859563        -0.670176         1.063301
 H         5.220926        -1.702783        -0.770039
 H         4.295060        -1.807716        -2.154983
 H         5.194056        -0.238354        -1.923498
 H        -0.556035         0.666172         0.431946
 H        -0.274598         0.528034        -1.229837
 H        -0.279690        -0.849963        -0.273714
 H         2.259819         1.730186        -1.056317
 H         1.910281         2.279976         0.563879
 H         4.522971         1.342772         0.595481
 H         3.897769        -1.196920         1.556354
