19
Iteration:  2695charge 0 multiplicity 1
 C         4.550995        -0.942547        -1.592100
 C         3.541278        -0.546022        -0.522068
 O         2.335096        -0.247151        -1.216524
 C         1.483231         0.180142        -0.182991
 C         0.109986         0.450117        -0.553969
 C         2.405407         1.393333         0.479411
 C         3.618027         0.508285         0.594570
 C         3.019733        -0.875946         0.857148
 O         1.612182        -0.784138         0.911456
 H         4.339944        -0.423444        -2.589043
 H         5.596061        -0.880874        -1.306689
 H         4.440644        -2.063131        -1.994924
 H        -0.522615         0.688657         0.351207
 H        -0.025185         1.497921        -0.969617
 H        -0.564925        -0.302190        -1.028362
 H         2.482944         2.313099        -0.005245
 H         2.190278         1.645413         1.490288
 H         4.499461         0.833056         1.081793
 H         3.347507        -1.573066         1.569300
