19
Iteration:  3577charge 0 multiplicity 1
 C         4.584573        -1.081331        -1.304784
 C         3.428210        -0.466093        -0.680176
 O         2.172354        -0.348274        -1.208959
 C         1.462671         0.162322        -0.046498
 C        -0.015479         0.298694        -0.336867
 C         2.337529         1.414228         0.129073
 C         3.640750         0.711999         0.332015
 C         3.244067        -0.752578         0.861331
 O         1.783039        -0.717689         1.041045
 H         5.610911        -0.814497        -0.864135
 H         4.404124        -2.130507        -1.521245
 H         4.716169        -0.685855        -2.462302
 H        -0.562013         0.668336         0.473424
 H        -0.041333         0.886959        -1.230108
 H        -0.472831        -0.642477        -0.481719
 H         2.315228         1.920395        -0.765826
 H         1.903024         1.985618         0.969434
 H         4.568464         1.179757         0.476794
 H         3.765717        -1.510361         1.327633
