19
Iteration:  4254
 C         4.511195        -1.071102        -1.426209
 C         3.502283        -0.515253        -0.613824
 O         2.174447        -0.535184        -1.174102
 C         1.499356         0.171411        -0.153465
 C        -0.031985         0.122209        -0.330607
 C         2.318324         1.423524         0.145664
 C         3.647849         0.756153         0.215259
 C         3.280220        -0.574750         0.938907
 O         1.778031        -0.551172         1.094249
 H         5.520212        -1.167578        -0.986448
 H         4.480639        -2.137431        -1.791047
 H         4.499668        -0.355280        -2.303417
 H        -0.504492         0.503629         0.552590
 H        -0.349418         0.685971        -1.202895
 H        -0.326865        -0.864568        -0.478647
 H         2.156466         2.354607        -0.378840
 H         1.890120         1.680235         1.108458
 H         4.475243         1.431665         0.441668
 H         3.876842        -1.247489         1.688173
