19
Iteration:  4451
 C         4.551604        -1.251801        -1.293947
 C         3.513017        -0.425343        -0.681168
 O         2.162256        -0.395679        -1.199692
 C         1.425408         0.158314        -0.015203
 C        -0.102980         0.067707        -0.248710
 C         2.215026         1.450821         0.082441
 C         3.620894         0.905764         0.205392
 C         3.326696        -0.531552         0.772423
 O         1.906017        -0.676056         1.081895
 H         4.298231        -1.979824        -2.025260
 H         5.337288        -0.696402        -1.681099
 H         5.054022        -2.001085        -0.665711
 H        -0.782733         0.482990         0.498850
 H        -0.205888         0.525855        -1.211770
 H        -0.149159        -0.992943        -0.297299
 H         1.922286         2.042676        -0.876238
 H         1.992496         2.047366         1.019285
 H         4.539744         1.485244         0.380869
 H         3.990109        -0.997644         1.568031
