19
Iteration:  4871charge 0 multiplicity 1
 C         4.680835        -1.058937        -1.453412
 C         3.475070        -0.511050        -0.635307
 O         2.199593        -0.622260        -1.165317
 C         1.464829         0.098381        -0.114894
 C        -0.044922         0.237028        -0.247468
 C         2.206443         1.365139         0.040124
 C         3.575373         0.765726         0.258420
 C         3.243242        -0.435959         0.960414
 O         1.810586        -0.642065         1.093620
 H         5.328079        -1.508661        -0.708049
 H         4.375210        -1.730654        -2.287540
 H         5.276729        -0.375330        -1.965397
 H        -0.245285         0.584962         0.766589
 H        -0.251177         1.066848        -0.913736
 H        -0.466277        -0.756850        -0.305331
 H         2.218453         2.005861        -0.979218
 H         1.749278         2.181640         0.779578
 H         4.443408         1.481879         0.152245
 H         3.879969        -1.006181         1.597848
