19
Iteration:   840charge 0 multiplicity 1
 C         4.634095        -1.018805        -1.480128
 C         3.489073        -0.520803        -0.573918
 O         2.192225        -0.293303        -1.175481
 C         1.467347         0.224594        -0.131866
 C        -0.024170         0.279099        -0.436221
 C         2.437219         1.424876         0.334919
 C         3.633686         0.599219         0.401833
 C         3.077778        -0.804695         0.905599
 O         1.714416        -0.719530         0.919357
 H         4.329730        -0.899471        -2.498642
 H         5.401124        -0.296097        -1.462856
 H         5.082666        -2.002831        -1.245827
 H        -0.523650         0.806834         0.430550
 H        -0.091013         1.052830        -1.200476
 H        -0.322027        -0.834333        -0.738932
 H         2.543322         2.332300        -0.303711
 H         2.156458         1.768966         1.402959
 H         4.590847         0.923218         0.624451
 H         3.424112        -1.601034         1.526675
