19
Iteration:   352
 C         4.578589        -1.074983        -1.392921
 C         3.479834        -0.517879        -0.572595
 O         2.128187        -0.460647        -1.203662
 C         1.457746         0.177335        -0.008273
 C        -0.006817        -0.017046        -0.263284
 C         2.252914         1.444306        -0.015493
 C         3.573611         0.777062         0.188511
 C         3.315812        -0.546212         0.917902
 O         1.847714        -0.553677         1.115773
 H         4.911219        -0.396551        -2.123758
 H         5.408278        -1.109321        -0.704509
 H         4.509079        -2.051256        -1.869464
 H        -0.556810         0.360045         0.620600
 H        -0.329934         0.440568        -1.263883
 H        -0.270779        -1.098626        -0.307774
 H         2.167008         1.869054        -1.022531
 H         1.986416         2.278867         0.644632
 H         4.518264         1.373648         0.166004
 H         3.904187        -1.096622         1.706897
