19
Iteration:  2604charge 0 multiplicity 1
 C         4.610902        -1.060783        -1.424971
 C         3.491680        -0.460708        -0.631842
 O         2.317629        -0.179994        -1.330255
 C         1.464119         0.268579        -0.165764
 C        -0.039451         0.400266        -0.387255
 C         2.418699         1.415752         0.458076
 C         3.663455         0.518869         0.659876
 C         3.057527        -0.856244         0.768537
 O         1.652000        -0.833927         0.804898
 H         5.413224        -0.298511        -1.582370
 H         5.022725        -1.892672        -0.757492
 H         4.099439        -1.492003        -2.333268
 H        -0.465589         0.785975         0.539427
 H        -0.372978         0.995165        -1.161285
 H        -0.206822        -0.683503        -0.390134
 H         2.536054         2.309204        -0.253555
 H         2.003505         1.914106         1.368303
 H         4.665354         0.856802         1.057040
 H         3.469954        -1.730320         1.265399
