19
Iteration:  2931charge 0 multiplicity 1
 C         4.641262        -1.115422        -1.399760
 C         3.572320        -0.459945        -0.606050
 O         2.160922        -0.194825        -1.274331
 C         1.473354         0.300557        -0.137419
 C        -0.001250         0.366853        -0.427522
 C         2.351562         1.352552         0.500733
 C         3.721827         0.548616         0.469630
 C         3.060107        -0.851150         0.734607
 O         1.662320        -0.765351         0.852858
 H         5.667814        -0.820862        -0.950392
 H         4.541671        -2.205904        -1.379335
 H         4.700450        -0.785781        -2.472474
 H        -0.586469         0.819175         0.406048
 H        -0.010091         1.230041        -1.062790
 H        -0.298840        -0.706176        -0.576574
 H         2.348362         2.413617         0.036406
 H         1.989105         1.557231         1.573637
 H         4.709808         0.961206         0.772459
 H         3.612464        -1.554413         1.453407
