19
Iteration:  1784charge 0 multiplicity 1
 C         4.699841        -1.086625        -1.385499
 C         3.484387        -0.468424        -0.602441
 O         2.219545        -0.134433        -1.298101
 C         1.523950         0.307037        -0.173989
 C         0.138075         0.778641        -0.451064
 C         2.282866         1.241185         0.711884
 C         3.641507         0.422175         0.579969
 C         3.030453        -1.030105         0.723562
 O         1.638036        -0.868817         0.634576
 H         4.336405        -1.783680        -2.054628
 H         5.165594        -0.300865        -2.019215
 H         5.480948        -1.547451        -0.847256
 H        -0.370184         0.984333         0.455490
 H         0.070737         1.547717        -1.122766
 H        -0.466903        -0.046624        -0.837591
 H         2.505482         2.393073         0.458432
 H         1.947887         1.191699         1.814294
 H         4.445237         0.727403         1.267862
 H         3.229722        -1.833790         1.332027
