19
Iteration:  4961charge 0 multiplicity 1
 C         4.493959        -1.143585        -1.393825
 C         3.532706        -0.408162        -0.562853
 O         2.152843        -0.465376        -1.183020
 C         1.445613         0.145292        -0.078074
 C        -0.059480         0.069371        -0.365479
 C         2.253461         1.428012         0.066746
 C         3.656154         0.832956         0.254960
 C         3.314015        -0.518336         0.958395
 O         1.876115        -0.680060         1.064515
 H         5.524618        -1.084854        -1.112563
 H         4.333461        -2.173606        -1.222573
 H         4.363373        -1.058217        -2.407082
 H        -0.600538         0.698636         0.291969
 H        -0.113940         0.515116        -1.299220
 H        -0.379180        -0.934836        -0.297691
 H         2.119665         2.115191        -0.797073
 H         1.898245         2.183149         0.884181
 H         4.468076         1.463307         0.278831
 H         3.972785        -1.014772         1.703338
