19
Iteration:  1722charge 0 multiplicity 1
 C         4.584662        -0.975843        -1.543890
 C         3.541341        -0.530848        -0.568058
 O         2.403443        -0.048156        -1.301552
 C         1.499423         0.353398        -0.127499
 C         0.088893         0.599150        -0.514601
 C         2.512928         1.406450         0.640994
 C         3.627805         0.331928         0.821054
 C         2.891065        -1.070240         0.754795
 O         1.488233        -0.894354         0.678665
 H         4.700355        -2.108946        -1.458371
 H         4.297250        -0.714866        -2.582817
 H         5.563560        -0.510027        -1.248634
 H        -0.396039         0.550712         0.486421
 H        -0.149239         1.581829        -1.055734
 H        -0.180952        -0.295288        -1.126055
 H         2.840131         2.079742        -0.072921
 H         2.042295         1.901023         1.487315
 H         4.595244         0.413209         1.358967
 H         3.146033        -1.935214         1.293979
