19
Iteration:   286charge 0 multiplicity 1
 C         4.593649        -1.151230        -1.417813
 C         3.526150        -0.519522        -0.578655
 O         2.140567        -0.561634        -1.142793
 C         1.465898         0.050744        -0.132074
 C         0.039580         0.037343        -0.294663
 C         2.178061         1.506832         0.066426
 C         3.527356         0.914532         0.098738
 C         3.291439        -0.498709         0.923290
 O         1.894243        -0.549041         1.163671
 H         5.542509        -0.824574        -1.145068
 H         4.516921        -2.210317        -1.392453
 H         4.355371        -0.812346        -2.415250
 H        -0.518885         0.591194         0.437478
 H        -0.356885         0.299510        -1.327299
 H        -0.282849        -0.984859        -0.117409
 H         2.017710         2.183627        -0.809398
 H         1.992256         2.074475         0.971970
 H         4.426921         1.347358         0.477933
 H         3.970962        -0.725528         1.686582
