19
Iteration:  4565
 C         4.606136        -1.099901        -1.465401
 C         3.513061        -0.497944        -0.632322
 O         2.228867        -0.606686        -1.191592
 C         1.446800         0.166505        -0.128246
 C        -0.039795         0.185221        -0.246587
 C         2.213036         1.455420         0.080037
 C         3.613037         0.792962         0.200697
 C         3.264097        -0.577497         0.947021
 O         1.831931        -0.622876         1.091616
 H         4.563776        -2.145013        -1.131277
 H         4.421873        -0.749043        -2.533848
 H         5.530564        -0.621127        -1.056662
 H        -0.586583         0.652452         0.556183
 H        -0.391703         0.766842        -1.091423
 H        -0.464577        -0.789048        -0.209244
 H         2.108759         2.201383        -0.681092
 H         1.965683         2.032215         0.998470
 H         4.388606         1.453455         0.607967
 H         3.783775        -0.986643         1.754524
