19
Iteration:  1645
 C         4.639786        -1.049849        -1.401420
 C         3.466120        -0.498861        -0.571639
 O         2.364684        -0.002288        -1.313276
 C         1.535501         0.348333        -0.235208
 C         0.113761         0.757006        -0.450679
 C         2.396684         1.239064         0.637920
 C         3.580424         0.386195         0.709007
 C         2.972713        -1.096070         0.764917
 O         1.550128        -0.932823         0.671063
 H         5.225087        -1.881321        -0.822263
 H         4.136396        -1.448917        -2.366863
 H         5.398710        -0.247437        -1.674563
 H        -0.363018         0.909703         0.544153
 H         0.068417         1.644299        -1.112318
 H        -0.451333        -0.186296        -0.814406
 H         2.593693         2.082819         0.063389
 H         1.940347         1.597453         1.555810
 H         4.532442         0.746728         1.172416
 H         3.500756        -2.036556         0.961537
