19
Iteration:  1903
 C         4.641460        -1.050193        -1.353559
 C         3.515568        -0.390634        -0.554449
 O         2.290693        -0.114060        -1.303892
 C         1.455831         0.231771        -0.158695
 C         0.106151         0.736157        -0.337475
 C         2.420933         1.322319         0.513116
 C         3.618664         0.439509         0.685106
 C         3.021042        -0.969468         0.698739
 O         1.552762        -1.034375         0.636644
 H         4.216556        -1.363526        -2.312154
 H         5.528379        -0.315672        -1.698247
 H         5.063354        -2.007662        -0.978161
 H        -0.432018         0.946048         0.593396
 H         0.321226         1.637773        -0.862617
 H        -0.471276         0.065767        -1.016770
 H         2.744038         2.114532        -0.217333
 H         1.900587         1.771649         1.374879
 H         4.550293         0.694622         1.152228
 H         3.403338        -1.760997         1.393761
