19
Iteration:  1196charge 0 multiplicity 1
 C         4.618667        -1.063618        -1.398272
 C         3.429014        -0.421956        -0.608500
 O         2.278301        -0.011494        -1.271897
 C         1.473730         0.219593        -0.053890
 C         0.157569         0.579214        -0.478650
 C         2.451423         1.300685         0.603290
 C         3.611230         0.526215         0.567031
 C         3.016904        -1.033473         0.713117
 O         1.611719        -0.948214         0.708000
 H         5.452996        -0.677867        -0.927944
 H         4.489482        -2.143442        -1.103415
 H         4.721833        -0.791612        -2.417331
 H        -0.365343         0.964667         0.426862
 H         0.258156         1.440719        -1.172050
 H        -0.444361        -0.257690        -0.967758
 H         2.460061         2.256400        -0.132973
 H         1.887333         1.739119         1.564044
 H         4.549278         0.701724         1.089217
 H         3.327500        -1.909466         1.201215
