19
Iteration:  1963
 C         4.513919        -0.992669        -1.424684
 C         3.442809        -0.480167        -0.613845
 O         2.283648        -0.022129        -1.192708
 C         1.487173         0.350945        -0.019123
 C         0.106069         0.571171        -0.631054
 C         2.484400         1.344062         0.646257
 C         3.715596         0.325465         0.655309
 C         2.984606        -1.070272         0.717056
 O         1.601118        -0.872576         0.707392
 H         4.318039        -2.070605        -1.577261
 H         4.582918        -0.496433        -2.307084
 H         5.427693        -0.766018        -0.894298
 H        -0.744059         0.759857         0.036141
 H         0.245622         1.419177        -1.321949
 H        -0.165379        -0.319696        -1.190197
 H         2.890545         2.024064        -0.110755
 H         2.192505         1.970601         1.550576
 H         4.734523         0.421141         1.084870
 H         3.223500        -1.958714         1.211838
