19
Iteration:  3042
 C         4.625351        -1.064828        -1.401739
 C         3.501092        -0.432696        -0.630740
 O         2.197223        -0.233611        -1.264183
 C         1.467457         0.158012        -0.077013
 C         0.036021         0.396730        -0.338713
 C         2.398304         1.524055         0.318413
 C         3.557430         0.559309         0.464241
 C         3.110902        -0.865454         0.767169
 O         1.732123        -0.840919         0.885618
 H         4.699802        -2.140849        -1.214781
 H         4.690663        -0.928384        -2.427015
 H         5.470132        -0.859579        -0.680027
 H        -0.442727         0.532823         0.620839
 H        -0.233339         1.137367        -1.146977
 H        -0.523903        -0.466962        -0.692140
 H         2.508099         2.320035        -0.503030
 H         2.167643         2.067350         1.348676
 H         4.558271         0.893455         0.714548
 H         3.556605        -1.417550         1.487691
