19
Iteration:  4907
 C         4.479404        -1.219844        -1.374082
 C         3.476845        -0.431121        -0.603599
 O         2.230543        -0.422729        -1.169052
 C         1.445535         0.159230        -0.116286
 C        -0.050626        -0.017225        -0.315944
 C         2.256579         1.515518         0.077349
 C         3.642130         0.823207         0.241575
 C         3.259330        -0.471899         0.904571
 O         1.892096        -0.642848         1.076691
 H         5.145450        -1.736477        -0.677265
 H         4.043076        -2.015391        -1.968865
 H         5.057051        -0.500273        -1.978712
 H        -0.526691         0.455082         0.518731
 H        -0.486439         0.395471        -1.185820
 H        -0.388277        -1.061407        -0.311148
 H         2.195658         2.059113        -0.888956
 H         2.016849         2.130262         1.028209
 H         4.554347         1.406900         0.352342
 H         4.004635        -1.123610         1.508473
