19
Iteration:  3317charge 0 multiplicity 1
 C         4.639571        -1.124817        -1.391501
 C         3.500191        -0.520208        -0.594265
 O         2.173744        -0.439107        -1.248644
 C         1.465327         0.146792        -0.149432
 C        -0.018380         0.363945        -0.292792
 C         2.302164         1.403885         0.312266
 C         3.610093         0.726305         0.286096
 C         3.217907        -0.690009         0.862223
 O         1.798389        -0.682694         0.938452
 H         5.438943        -0.633229        -0.881925
 H         4.554953        -2.170785        -1.468127
 H         4.603101        -0.733228        -2.393080
 H        -0.479232         0.784637         0.618633
 H        -0.359244         0.983225        -1.197274
 H        -0.690758        -0.542017        -0.517780
 H         2.090318         2.233488        -0.368024
 H         1.993586         1.626995         1.389320
 H         4.548608         1.138977         0.557148
 H         3.829730        -1.166631         1.506072
