19
Iteration:  2081charge 0 multiplicity 1
 C         4.619434        -0.999230        -1.401066
 C         3.489999        -0.525131        -0.589059
 O         2.284495        -0.121140        -1.293126
 C         1.506899         0.353158        -0.196658
 C         0.086788         0.610983        -0.472313
 C         2.463612         1.307686         0.606347
 C         3.654832         0.307384         0.609557
 C         2.980866        -0.998114         0.791081
 O         1.566663        -0.788665         0.683489
 H         4.160461        -1.410184        -2.364173
 H         5.414681        -0.188988        -1.564849
 H         5.180482        -1.795675        -0.845031
 H        -0.325148         0.718684         0.511566
 H        -0.204217         1.444950        -1.047102
 H        -0.404060        -0.223911        -0.807375
 H         2.780478         2.305289         0.271220
 H         1.959419         1.334858         1.618066
 H         4.618508         0.720160         0.931480
 H         3.250177        -1.779856         1.537266
