19
Iteration:  4702charge 0 multiplicity 1
 C         4.647091        -0.984457        -1.503499
 C         3.524091        -0.584096        -0.505804
 O         2.161205        -0.575298        -1.149516
 C         1.468810         0.058789        -0.154725
 C        -0.090965         0.203013        -0.263097
 C         2.304518         1.408928         0.044936
 C         3.631949         0.760332         0.221627
 C         3.207947        -0.606736         0.923349
 O         1.800947        -0.520027         1.090608
 H         5.589414        -1.288237        -0.976990
 H         4.507259        -1.869584        -2.028447
 H         4.853398        -0.088277        -2.178808
 H        -0.428095         0.627848         0.719818
 H        -0.369227         0.887582        -1.080689
 H        -0.560125        -0.854389        -0.303135
 H         2.123007         2.055647        -0.773767
 H         2.028339         2.024948         0.830326
 H         4.564626         1.316140         0.523038
 H         3.659032        -1.113270         1.739921
