19
Iteration:   187charge 0 multiplicity 1
 C         4.523333        -1.147027        -1.402237
 C         3.509742        -0.402190        -0.615593
 O         2.120935        -0.569661        -1.016340
 C         1.468978         0.082787         0.019289
 C         0.025541         0.066545        -0.389933
 C         2.095688         1.417539        -0.082568
 C         3.509109         0.944706         0.113548
 C         3.380850        -0.449093         0.909094
 O         2.026444        -0.643995         1.246980
 H         4.072445        -2.050487        -1.708005
 H         4.752932        -0.614394        -2.287226
 H         5.392835        -1.322154        -0.831752
 H        -0.740933         0.436796         0.311136
 H        -0.136729         0.570344        -1.334009
 H        -0.271010        -0.968637        -0.629162
 H         1.897360         1.750622        -1.167349
 H         1.586179         2.113829         0.540157
 H         4.452229         1.507065        -0.119521
 H         4.169430        -0.914591         1.617430
