19
Iteration:   199
 C         4.525035        -1.155187        -1.413089
 C         3.497509        -0.418119        -0.585634
 O         2.188258        -0.684311        -1.063129
 C         1.432230        -0.001745        -0.077742
 C        -0.081909         0.085592        -0.349737
 C         2.112446         1.463503        -0.034731
 C         3.525963         0.931653         0.149223
 C         3.377360        -0.336651         0.871376
 O         2.023860        -0.619601         1.203548
 H         4.254437        -2.172674        -1.406222
 H         4.636577        -0.841056        -2.433739
 H         5.503010        -1.123124        -0.964915
 H        -0.552736         0.583084         0.498754
 H        -0.069555         0.791911        -1.201223
 H        -0.528327        -0.878511        -0.574685
 H         1.953300         2.057728        -0.991799
 H         1.877407         2.000463         0.872595
 H         4.405984         1.559731         0.346244
 H         4.151838        -0.701170         1.582679
