19
Iteration:  2154charge 0 multiplicity 1
 C         4.616179        -1.070254        -1.511078
 C         3.468132        -0.520822        -0.595603
 O         2.311161        -0.062030        -1.216427
 C         1.520431         0.362175        -0.145427
 C         0.144286         0.539601        -0.563303
 C         2.435676         1.299737         0.709313
 C         3.614377         0.415327         0.558874
 C         3.034541        -1.016510         0.741825
 O         1.519048        -0.800871         0.772243
 H         4.394604        -0.825782        -2.485748
 H         5.576571        -0.671700        -1.087397
 H         4.771184        -2.107981        -1.428257
 H        -0.582648         0.816690         0.255810
 H        -0.085322         1.482551        -1.271504
 H        -0.242972        -0.357468        -1.120851
 H         2.480315         2.329710         0.297016
 H         2.151890         1.385238         1.749567
 H         4.547931         0.646134         1.070241
 H         3.380078        -1.750790         1.462498
