19
Iteration:  3898charge 0 multiplicity 1
 C         4.604672        -1.006711        -1.407612
 C         3.460477        -0.501196        -0.553767
 O         2.169353        -0.404492        -1.203910
 C         1.428773         0.205846        -0.019739
 C        -0.006851         0.322519        -0.343626
 C         2.339630         1.466402         0.149209
 C         3.632953         0.723564         0.384718
 C         3.173325        -0.753577         0.837246
 O         1.808492        -0.831213         0.989528
 H         5.495431        -0.688908        -0.804408
 H         4.544827        -2.228018        -1.554892
 H         4.707029        -0.572751        -2.427423
 H        -0.502598         0.962174         0.311267
 H        -0.112643         1.017332        -1.162442
 H        -0.398391        -0.507242        -0.840508
 H         2.236314         1.895625        -0.886949
 H         2.018693         2.168446         0.856925
 H         4.751278         1.036157         0.560694
 H         3.699089        -1.552121         1.507027
