19
Iteration:  1564charge 0 multiplicity 1
 C         4.636528        -1.049381        -1.513624
 C         3.522827        -0.454139        -0.556371
 O         2.262883        -0.111404        -1.244842
 C         1.453777         0.268615        -0.097511
 C         0.227114         0.861728        -0.623478
 C         2.395700         1.236737         0.738303
 C         3.630707         0.340891         0.742731
 C         3.010379        -1.011769         0.737586
 O         1.512177        -0.959357         0.683556
 H         5.605770        -0.687395        -1.365843
 H         4.664515        -2.122927        -1.634538
 H         4.228765        -0.634111        -2.412324
 H        -0.489145         1.196327         0.102513
 H         0.512920         1.742287        -1.230744
 H        -0.187829         0.213665        -1.326521
 H         2.400561         2.347724         0.343180
 H         2.065134         1.128294         1.809193
 H         4.602193         0.756137         1.015402
 H         3.346868        -1.879698         1.223016
