19
Iteration:   555
 C         4.625512        -1.120852        -1.448130
 C         3.461503        -0.449291        -0.612688
 O         2.167487        -0.522788        -1.178479
 C         1.447946         0.093431        -0.077675
 C         0.046026         0.190792        -0.395342
 C         2.237845         1.521349         0.240324
 C         3.569666         0.821696         0.277152
 C         3.265721        -0.611486         0.898999
 O         1.812312        -0.684067         1.055408
 H         5.505034        -0.422020        -1.498502
 H         4.870666        -2.148171        -1.108457
 H         4.283828        -1.333599        -2.474962
 H        -0.532111         0.632112         0.373266
 H        -0.164765         0.934117        -1.175492
 H        -0.401588        -0.717804        -0.663481
 H         2.066358         2.408455        -0.532888
 H         1.936349         1.769956         1.236284
 H         4.532669         1.319869         0.476048
 H         4.058440        -1.236613         1.429773
