19
Iteration:  3392
 C         4.551495        -1.155682        -1.546266
 C         3.477696        -0.517860        -0.615850
 O         2.206318        -0.417874        -1.178742
 C         1.478643         0.269174        -0.136421
 C         0.028627         0.108856        -0.416905
 C         2.331702         1.488833         0.309371
 C         3.672306         0.680252         0.316972
 C         3.163745        -0.649781         0.872079
 O         1.775721        -0.579197         1.065046
 H         5.015917        -1.947300        -0.908603
 H         3.986002        -1.546947        -2.400631
 H         5.161715        -0.222572        -1.862191
 H        -0.490727         0.317762         0.514907
 H        -0.296751         0.675466        -1.344264
 H        -0.440679        -0.904864        -0.516538
 H         2.413211         2.386068        -0.237362
 H         2.091044         1.753800         1.360661
 H         4.507633         1.204057         0.786455
 H         3.576240        -1.195587         1.707886
