19
Iteration:  2984
 C         4.493304        -0.981299        -1.560448
 C         3.583145        -0.492961        -0.538616
 O         2.317141        -0.337539        -1.233042
 C         1.467634         0.181493        -0.051568
 C         0.057312         0.459096        -0.476512
 C         2.354901         1.396802         0.410524
 C         3.627454         0.578614         0.531958
 C         3.093010        -0.791003         0.878893
 O         1.654367        -0.803321         0.886965
 H         5.068779        -1.851063        -1.176291
 H         4.032319        -1.368554        -2.464934
 H         5.114585        -0.290935        -2.045428
 H        -0.558966         0.908490         0.353374
 H         0.030914         1.132917        -1.344223
 H        -0.363904        -0.576691        -0.787425
 H         2.468251         2.097557        -0.415328
 H         2.086148         1.860919         1.327293
 H         4.552999         1.015499         0.979375
 H         3.586764        -1.638588         1.462079
