19
Iteration:  3311
 C         4.609699        -1.085488        -1.372302
 C         3.477352        -0.588261        -0.660451
 O         2.223295        -0.449263        -1.241923
 C         1.457342         0.122603        -0.135391
 C        -0.031116         0.349186        -0.299843
 C         2.287770         1.413959         0.327269
 C         3.628383         0.727266         0.293999
 C         3.195336        -0.659172         0.822962
 O         1.773440        -0.659299         0.959937
 H         5.530303        -0.499450        -1.014563
 H         4.733620        -2.265986        -1.416215
 H         4.608267        -0.745657        -2.457361
 H        -0.475516         0.967290         0.516638
 H        -0.392317         1.102805        -0.952028
 H        -0.393948        -0.640029        -0.498974
 H         2.204827         2.354842        -0.302569
 H         1.922601         1.595267         1.330688
 H         4.668004         1.052872         0.590349
 H         3.831186        -1.303243         1.672758
