19
Iteration:  3873charge 0 multiplicity 1
 C         4.663177        -1.105183        -1.336785
 C         3.462330        -0.450667        -0.691715
 O         2.158016        -0.395525        -1.239951
 C         1.428906         0.190770        -0.084199
 C         0.000963         0.349536        -0.378033
 C         2.287415         1.352656         0.328004
 C         3.573858         0.676907         0.318549
 C         3.236153        -0.678977         0.794196
 O         1.813162        -0.745904         1.006275
 H         5.638927        -0.592430        -0.993077
 H         4.633223        -2.156273        -1.017027
 H         4.609347        -1.145916        -2.467016
 H        -0.388645         0.994397         0.465840
 H        -0.182913         1.048497        -1.189784
 H        -0.519556        -0.559878        -0.701921
 H         2.316665         2.219959        -0.418155
 H         1.997785         1.730856         1.357428
 H         4.465778         1.227800         0.425647
 H         3.738025        -1.281369         1.552457
