19
Iteration:  3339charge 0 multiplicity 1
 C         4.579845        -1.160770        -1.416284
 C         3.500721        -0.418282        -0.651722
 O         2.189995        -0.354841        -1.202946
 C         1.454884         0.145108        -0.063611
 C         0.041555         0.335071        -0.328500
 C         2.278958         1.465793         0.176001
 C         3.591833         0.740514         0.401269
 C         3.225091        -0.695671         0.847797
 O         1.815749        -0.820076         1.022534
 H         5.438496        -1.201050        -0.731716
 H         4.038565        -1.997092        -1.760499
 H         4.880435        -0.688550        -2.346640
 H        -0.586744         0.793938         0.467676
 H        -0.301675         0.905219        -1.256376
 H        -0.522074        -0.645933        -0.586139
 H         2.319681         2.016423        -0.787912
 H         1.834394         2.077185         1.034502
 H         4.555386         1.179888         0.570796
 H         3.864167        -1.337006         1.387287
