19
Iteration:   744
 C         4.480033        -1.127283        -1.367249
 C         3.503273        -0.388258        -0.609850
 O         2.176782        -0.281821        -1.235809
 C         1.490113         0.148836        -0.137396
 C        -0.027609         0.310166        -0.488536
 C         2.285931         1.362452         0.307105
 C         3.660541         0.733095         0.415073
 C         3.206254        -0.743413         0.834688
 O         1.867091        -0.801983         1.046914
 H         5.354871        -1.358877        -0.702717
 H         4.157876        -2.085763        -1.759615
 H         4.806847        -0.512462        -2.303783
 H        -0.592017         0.656218         0.365921
 H        -0.282031         1.043040        -1.214555
 H        -0.247217        -0.732479        -0.788381
 H         2.326929         2.095030        -0.514409
 H         1.900707         1.992439         1.211843
 H         4.543280         1.348868         0.517242
 H         3.832125        -1.405017         1.446525
