19
Iteration:  1830charge 0 multiplicity 1
 C         4.519906        -0.950502        -1.553347
 C         3.530513        -0.532362        -0.473795
 O         2.303031        -0.002805        -1.297979
 C         1.577817         0.377195        -0.132680
 C         0.106236         0.502418        -0.563841
 C         2.477689         1.335683         0.609873
 C         3.642779         0.294348         0.820697
 C         2.948176        -1.077922         0.722499
 O         1.585273        -0.794514         0.748654
 H         4.010728        -1.060084        -2.460911
 H         5.378266        -0.366090        -1.691530
 H         4.888779        -1.935269        -1.346924
 H        -0.644096         0.727846         0.188876
 H        -0.010884         1.215418        -1.434332
 H        -0.132572        -0.463645        -0.923516
 H         2.565962         2.213413        -0.107849
 H         1.918662         1.795965         1.523439
 H         4.633310         0.471878         1.180669
 H         3.224814        -1.974165         1.384423
