19
Iteration:  4143
 C         4.549763        -1.205146        -1.325149
 C         3.420295        -0.478201        -0.635338
 O         2.146862        -0.317487        -1.282099
 C         1.464575         0.211338        -0.049452
 C        -0.023493         0.093781        -0.327074
 C         2.342830         1.497908         0.145564
 C         3.638211         0.780245         0.369652
 C         3.218813        -0.617696         0.827305
 O         1.886980        -0.714130         1.038930
 H         4.882444        -0.693150        -2.269624
 H         5.500591        -1.108796        -0.598552
 H         4.191538        -2.222974        -1.518995
 H        -0.722585         0.444020         0.395740
 H        -0.138042         0.704871        -1.182494
 H        -0.337144        -0.907977        -0.394961
 H         2.296492         2.058133        -0.726022
 H         1.920668         1.980163         1.023852
 H         4.526280         1.396681         0.342552
 H         3.691907        -1.279087         1.432326
