19
Iteration:  4314
 C         4.545552        -1.233210        -1.371140
 C         3.497896        -0.407070        -0.629213
 O         2.244117        -0.468074        -1.221827
 C         1.494414         0.129900        -0.118225
 C        -0.049029         0.105902        -0.209169
 C         2.214749         1.534193         0.167396
 C         3.547538         0.844694         0.237522
 C         3.293700        -0.592364         0.863303
 O         1.882617        -0.639650         0.987578
 H         4.849007        -1.948022        -0.624750
 H         3.934806        -1.587994        -2.191635
 H         5.436738        -0.745588        -1.727839
 H        -0.530669         0.736126         0.589007
 H        -0.228321         0.696553        -1.160947
 H        -0.558063        -0.949758        -0.385554
 H         2.094356         2.245325        -0.649770
 H         1.859565         1.669671         1.200905
 H         4.518940         1.304788         0.349060
 H         3.749788        -1.030556         1.738730
