19
Iteration:  1887
 C         4.587444        -1.022503        -1.398483
 C         3.494906        -0.434871        -0.614799
 O         2.261752        -0.078181        -1.274935
 C         1.497148         0.182637        -0.091991
 C         0.159500         0.738189        -0.506266
 C         2.383461         1.358097         0.555184
 C         3.535648         0.400549         0.700037
 C         3.050344        -1.044688         0.705016
 O         1.673379        -0.953041         0.730307
 H         4.324164        -1.280291        -2.479650
 H         5.440631        -0.439723        -1.356710
 H         4.808298        -1.949026        -0.807809
 H        -0.314805         0.901581         0.524847
 H         0.159983         1.791603        -1.030393
 H        -0.636790         0.167293        -1.096016
 H         2.446780         1.963138        -0.312315
 H         1.989474         1.765503         1.527503
 H         4.480678         0.667168         1.249461
 H         3.519290        -1.972561         0.980615
