19
Iteration:   633
 C         4.624918        -1.129131        -1.437515
 C         3.480554        -0.456467        -0.569319
 O         2.169592        -0.432132        -1.269021
 C         1.442924         0.132309        -0.060897
 C        -0.046836         0.246768        -0.400363
 C         2.242129         1.391733         0.285321
 C         3.611421         0.748571         0.337623
 C         3.233039        -0.630334         0.874429
 O         1.878184        -0.672532         1.008410
 H         4.145383        -1.315416        -2.408419
 H         5.439634        -0.383695        -1.365945
 H         5.087093        -2.024224        -0.913755
 H        -0.606761         0.620894         0.465492
 H        -0.025649         0.967665        -1.202072
 H        -0.529958        -0.681718        -0.723595
 H         2.300320         2.189139        -0.542955
 H         1.882910         1.781516         1.268155
 H         4.420125         1.437222         0.443030
 H         3.750080        -1.312847         1.477522
