19
Iteration:  2901
 C         4.621021        -1.084249        -1.351145
 C         3.505944        -0.451309        -0.624688
 O         2.288526        -0.225216        -1.385110
 C         1.463441         0.205625        -0.041388
 C         0.012432         0.491569        -0.337583
 C         2.318808         1.350188         0.419529
 C         3.606964         0.554160         0.536845
 C         3.108032        -0.856021         0.737065
 O         1.689120        -0.843028         0.824932
 H         5.514337        -0.459530        -1.276109
 H         4.651895        -2.044715        -0.881953
 H         4.359992        -0.962542        -2.460340
 H        -0.464290         0.797780         0.565307
 H         0.167026         1.377934        -0.990020
 H        -0.497092        -0.365842        -0.773263
 H         2.427269         2.166526        -0.375040
 H         2.012646         1.853852         1.405992
 H         4.557821         1.049913         0.962819
 H         3.668927        -1.598962         1.388871
