19
Iteration:   655
 C         4.641176        -1.063473        -1.412022
 C         3.507723        -0.402101        -0.626729
 O         2.140279        -0.408655        -1.123116
 C         1.437503         0.128902        -0.012385
 C         0.054328         0.382817        -0.423781
 C         2.233016         1.473968         0.134114
 C         3.575282         0.675600         0.297649
 C         3.291196        -0.667600         0.806508
 O         1.789238        -0.883615         1.078327
 H         4.098197        -1.783417        -2.058635
 H         5.279009        -0.262945        -1.861965
 H         5.473105        -1.388648        -0.677004
 H        -0.634619         0.788956         0.322094
 H        -0.110432         0.932963        -1.313536
 H        -0.373863        -0.637885        -0.568163
 H         2.008244         2.072812        -0.840255
 H         1.882993         1.928736         1.115304
 H         4.463540         1.202114         0.663134
 H         3.842034        -1.273321         1.459433
