19
Iteration:  2036
 C         4.659579        -1.053497        -1.389046
 C         3.467351        -0.472548        -0.623440
 O         2.313934         0.006817        -1.253804
 C         1.488486         0.311735        -0.116674
 C         0.073062         0.686389        -0.457628
 C         2.476294         1.274288         0.579496
 C         3.614228         0.344740         0.631397
 C         2.983251        -1.038052         0.757071
 O         1.551814        -0.924076         0.688912
 H         4.422923        -2.115333        -1.536227
 H         4.920193        -0.465379        -2.387089
 H         5.550299        -0.879166        -0.760697
 H        -0.573287         0.971424         0.329469
 H         0.100224         1.476212        -1.235724
 H        -0.381906        -0.166005        -0.855028
 H         2.399694         2.053872        -0.200840
 H         2.091535         1.766582         1.486904
 H         4.677614         0.399966         0.953338
 H         3.470665        -1.754686         1.340071
