19
Iteration:   221
 C         4.657698        -1.182633        -1.403593
 C         3.541197        -0.489631        -0.570450
 O         2.236714        -0.707697        -1.147186
 C         1.466438         0.074058        -0.161978
 C        -0.052452         0.078690        -0.152625
 C         2.127984         1.454074         0.067062
 C         3.556695         0.912812         0.095836
 C         3.282965        -0.377517         0.908899
 O         1.849376        -0.484693         1.054724
 H         4.813916        -2.171336        -1.103883
 H         4.305217        -1.195575        -2.421612
 H         5.602881        -0.666259        -1.400586
 H        -0.406202         0.427450         0.809126
 H        -0.488290         0.696230        -0.972335
 H        -0.264410        -0.983070        -0.205694
 H         1.819988         2.211630        -0.700593
 H         1.710819         1.632969         1.047805
 H         4.441640         1.496194        -0.058368
 H         3.810300        -0.760048         1.767394
