19
Iteration:  2382
 C         4.614676        -0.981018        -1.517212
 C         3.508989        -0.511337        -0.603322
 O         2.323982        -0.202517        -1.219487
 C         1.531147         0.303070        -0.185801
 C         0.088479         0.523078        -0.429784
 C         2.416364         1.399224         0.481953
 C         3.640589         0.437759         0.654970
 C         2.958011        -0.962580         0.837346
 O         1.554150        -0.821072         0.752843
 H         4.669932        -2.096725        -1.511880
 H         4.366060        -0.465201        -2.593227
 H         5.602296        -0.578688        -1.181295
 H        -0.171510         0.575038         0.608854
 H        -0.204534         1.283978        -1.135450
 H        -0.346562        -0.313636        -0.887372
 H         2.603617         2.389070        -0.154611
 H         2.024001         1.569718         1.556461
 H         4.607326         0.487053         1.155581
 H         3.378387        -1.723965         1.421913
