19
Iteration:  2179charge 0 multiplicity 1
 C         4.690625        -1.081077        -1.425197
 C         3.476383        -0.484460        -0.615423
 O         2.328830        -0.054484        -1.362751
 C         1.497459         0.340608        -0.170093
 C         0.000640         0.534961        -0.404555
 C         2.442026         1.330856         0.587844
 C         3.664663         0.346033         0.732163
 C         3.026362        -1.006295         0.714502
 O         1.543543        -0.779154         0.738862
 H         4.694403        -0.451781        -2.355179
 H         5.616451        -0.988216        -0.864825
 H         4.573785        -2.130955        -1.738174
 H        -0.518840         0.809140         0.492131
 H        -0.244327         1.380312        -0.988091
 H        -0.458734        -0.305955        -0.837530
 H         2.629623         2.172697        -0.004345
 H         1.954020         1.722428         1.432698
 H         4.617748         0.564166         1.197488
 H         3.280788        -1.948585         1.282875
