19
Iteration:  4753
 C         4.544443        -1.277887        -1.322049
 C         3.474886        -0.365162        -0.623551
 O         2.241751        -0.363720        -1.205455
 C         1.434475         0.146472        -0.015175
 C        -0.070057         0.098435        -0.312912
 C         2.184104         1.445141         0.138442
 C         3.614444         0.804325         0.229914
 C         3.357839        -0.536626         0.833216
 O         1.872473        -0.690728         1.027542
 H         5.544680        -0.798376        -1.186426
 H         4.559543        -2.405074        -0.953201
 H         4.362320        -1.334914        -2.376895
 H        -0.665667         0.697604         0.361526
 H        -0.156787         0.640229        -1.245575
 H        -0.543062        -0.877505        -0.291770
 H         1.983848         2.212854        -0.620246
 H         1.860489         2.032646         1.055631
 H         4.507334         1.395113         0.324601
 H         3.927861        -1.215163         1.325319
