19
Iteration:  4288
 C         4.539899        -1.269516        -1.369404
 C         3.501042        -0.378490        -0.646467
 O         2.152074        -0.340269        -1.201429
 C         1.465132         0.191342        -0.072119
 C        -0.045613         0.077673        -0.244970
 C         2.252261         1.478594         0.003103
 C         3.583556         0.801729         0.308538
 C         3.333560        -0.570356         0.874939
 O         1.848597        -0.737068         1.048009
 H         5.206563        -1.648502        -0.608201
 H         4.021419        -1.825976        -2.138898
 H         5.308493        -0.528462        -1.881140
 H        -0.537817         0.545628         0.577604
 H        -0.264122         0.667468        -1.112727
 H        -0.299677        -0.909873        -0.276886
 H         2.362370         1.926945        -0.988509
 H         1.976367         1.982507         0.847672
 H         4.375823         1.376692         0.813969
 H         3.964708        -1.069687         1.656250
