19
Iteration:  3078
 C         4.488335        -1.112398        -1.455728
 C         3.539730        -0.454082        -0.596133
 O         2.347046        -0.260197        -1.291244
 C         1.472507         0.183705        -0.200933
 C        -0.074452         0.297123        -0.357733
 C         2.332900         1.421795         0.386858
 C         3.619072         0.624347         0.466614
 C         3.152666        -0.772033         0.872186
 O         1.745678        -0.729773         0.893555
 H         3.759563        -1.732992        -1.959823
 H         5.255027        -0.488112        -2.053610
 H         5.250008        -1.622933        -0.803288
 H        -0.421457         0.658245         0.610660
 H        -0.223537         1.111513        -1.033048
 H        -0.471797        -0.632870        -0.749855
 H         2.340741         2.309146        -0.265865
 H         2.150564         1.684214         1.494044
 H         4.570151         1.049903         0.760723
 H         3.624310        -1.507908         1.650385
