19
Iteration:  1876
 C         4.608211        -1.038775        -1.409047
 C         3.452482        -0.470718        -0.616336
 O         2.312397        -0.073804        -1.287698
 C         1.479347         0.295440        -0.073450
 C         0.097109         0.714896        -0.517418
 C         2.366073         1.262150         0.595158
 C         3.591501         0.388551         0.656796
 C         3.076881        -1.043571         0.704178
 O         1.630370        -0.907177         0.781358
 H         4.285282        -1.115392        -2.488010
 H         5.410791        -0.365196        -1.419654
 H         5.001155        -2.037748        -1.139211
 H        -0.617633         0.973039         0.308148
 H         0.288003         1.666103        -1.148453
 H        -0.308398        -0.108417        -1.160184
 H         2.614711         2.156827         0.050792
 H         1.861126         1.599595         1.527503
 H         4.541751         0.837159         1.004024
 H         3.458770        -1.961391         1.161906
