19
Iteration:  3283
 C         4.615238        -1.044554        -1.437817
 C         3.515840        -0.460761        -0.615685
 O         2.114516        -0.358256        -1.187598
 C         1.490921         0.170595        -0.124034
 C        -0.039763         0.280851        -0.344225
 C         2.359360         1.433938         0.192085
 C         3.612645         0.639851         0.382898
 C         3.182058        -0.785854         0.906583
 O         1.775428        -0.696114         0.994870
 H         5.594990        -0.581412        -1.465093
 H         4.996047        -1.976194        -1.174288
 H         4.317162        -0.976609        -2.507686
 H        -0.594261         0.738320         0.493906
 H        -0.211285         1.113855        -1.152294
 H        -0.211558        -0.808041        -0.583010
 H         2.417089         2.030992        -0.703192
 H         2.075218         2.092871         1.076047
 H         4.571977         1.067986         0.661266
 H         3.647755        -1.394794         1.602124
