19
Iteration:  1524
 C         4.611953        -1.085282        -1.415677
 C         3.515428        -0.475324        -0.552860
 O         2.350026         0.066829        -1.309764
 C         1.564130         0.321041        -0.147274
 C         0.114828         0.678028        -0.462559
 C         2.469817         1.282184         0.627281
 C         3.619238         0.310307         0.791971
 C         2.936649        -1.106623         0.723451
 O         1.486724        -0.853480         0.631754
 H         5.651467        -0.688890        -1.254288
 H         4.489976        -2.240989        -1.570678
 H         4.308563        -0.754274        -2.462689
 H        -0.582659         0.698177         0.413522
 H         0.194652         1.681143        -0.912729
 H        -0.277221        -0.054015        -1.234585
 H         2.753147         2.104197         0.068431
 H         1.827244         1.581503         1.433808
 H         4.613319         0.472496         1.151151
 H         3.328106        -2.051169         1.115270
