19
Iteration:   290
 C         4.591129        -1.172938        -1.453284
 C         3.549727        -0.541950        -0.561281
 O         2.166977        -0.583403        -1.171014
 C         1.462600         0.054403        -0.136587
 C         0.048425         0.039985        -0.306600
 C         2.148471         1.502511         0.086476
 C         3.521376         0.930723         0.093717
 C         3.263725        -0.454407         0.928931
 O         1.888499        -0.556279         1.178169
 H         5.593854        -0.707784        -1.217538
 H         4.545845        -2.287719        -1.345790
 H         4.238443        -0.896917        -2.471168
 H        -0.457022         0.724409         0.414356
 H        -0.265298         0.438673        -1.271863
 H        -0.333126        -0.974291        -0.078056
 H         1.944133         2.211003        -0.701033
 H         2.028832         1.927780         1.182852
 H         4.478561         1.356776         0.470368
 H         3.998853        -0.611475         1.768137
