19
Iteration:  2079
 C         4.614630        -0.998024        -1.383088
 C         3.482831        -0.526889        -0.598895
 O         2.284942        -0.121203        -1.292930
 C         1.510329         0.359514        -0.202576
 C         0.084844         0.619630        -0.465779
 C         2.457404         1.323873         0.610862
 C         3.658927         0.305716         0.624016
 C         2.983710        -1.003830         0.762034
 O         1.564394        -0.794049         0.698344
 H         4.234146        -1.431259        -2.308307
 H         5.437808        -0.173712        -1.594290
 H         5.171523        -1.745757        -0.821786
 H        -0.349737         0.668571         0.533328
 H        -0.287846         1.463677        -1.124493
 H        -0.372045        -0.303412        -0.807247
 H         2.802017         2.267335         0.205138
 H         2.029946         1.296728         1.582077
 H         4.691715         0.638284         0.884910
 H         3.218407        -1.745747         1.468498
