19
Iteration:  3134
 C         4.554965        -1.013587        -1.461768
 C         3.504239        -0.489967        -0.592215
 O         2.168611        -0.325442        -1.204445
 C         1.501653         0.206339        -0.184570
 C         0.020474         0.396045        -0.471631
 C         2.355488         1.422164         0.291736
 C         3.644871         0.637771         0.427650
 C         3.144164        -0.769964         0.887599
 O         1.736828        -0.825392         1.083024
 H         4.324128        -0.941742        -2.543294
 H         5.550446        -0.438447        -1.558090
 H         4.765329        -2.081246        -1.373791
 H        -0.497269         0.556666         0.462628
 H        -0.064351         0.932948        -1.354258
 H        -0.396059        -0.586655        -0.778812
 H         2.307550         2.225040        -0.460177
 H         2.077490         1.816390         1.280354
 H         4.714583         0.949275         0.652390
 H         3.699802        -1.437872         1.539712
