19
Iteration:  2961charge 0 multiplicity 1
 C         4.464998        -1.039640        -1.491759
 C         3.518022        -0.508319        -0.540761
 O         2.244791        -0.154049        -1.232676
 C         1.496255         0.281221        -0.137755
 C         0.053090         0.367331        -0.497463
 C         2.348767         1.462013         0.389867
 C         3.651208         0.523652         0.590746
 C         3.114925        -0.882415         0.845013
 O         1.739717        -0.852527         0.914619
 H         5.282607        -1.489377        -0.905044
 H         4.254684        -1.876259        -2.157490
 H         4.811891        -0.417501        -2.249164
 H        -0.515592         0.864153         0.342495
 H        -0.056153         1.028485        -1.374870
 H        -0.451966        -0.614168        -0.824538
 H         2.548839         2.095087        -0.435218
 H         1.916146         1.939116         1.209653
 H         4.611097         0.903958         0.790175
 H         3.761465        -1.525028         1.480795
