19
Iteration:  2889charge 0 multiplicity 1
 C         4.625797        -1.052015        -1.411257
 C         3.524518        -0.360891        -0.610071
 O         2.275953        -0.210091        -1.244706
 C         1.451818         0.135148        -0.106659
 C         0.060786         0.515378        -0.336770
 C         2.346285         1.358764         0.349371
 C         3.624684         0.581050         0.557446
 C         3.095375        -0.879132         0.782712
 O         1.648808        -0.869553         0.828767
 H         5.639732        -0.561953        -1.380262
 H         4.972642        -2.051974        -1.254286
 H         4.286956        -1.338846        -2.476074
 H        -0.481738         0.840353         0.525341
 H        -0.035742         1.386157        -1.020424
 H        -0.534553        -0.272401        -0.843975
 H         2.317602         2.040054        -0.613209
 H         1.858299         1.910848         1.276626
 H         4.651752         0.759398         0.993478
 H         3.459369        -1.768929         1.426297
