19
Iteration:  2113charge 0 multiplicity 1
 C         4.529815        -1.056442        -1.554649
 C         3.571989        -0.454300        -0.555823
 O         2.359689        -0.117635        -1.183573
 C         1.483559         0.258045        -0.078487
 C         0.149950         0.737920        -0.620744
 C         2.329464         1.337758         0.542423
 C         3.588526         0.406767         0.733453
 C         3.062101        -1.027141         0.727178
 O         1.587141        -0.969303         0.800465
 H         3.944360        -1.047785        -2.537352
 H         5.462876        -0.386256        -1.681530
 H         4.698191        -2.117963        -1.263137
 H        -0.330158         0.968671         0.322111
 H         0.179258         1.700971        -1.139533
 H        -0.384764        -0.002454        -1.091034
 H         2.540931         2.181350        -0.086879
 H         1.768428         1.841223         1.293664
 H         4.473334         0.799122         1.228540
 H         3.596696        -1.738073         1.441930
