19
Iteration:  2395charge 0 multiplicity 1
 C         4.571917        -0.965750        -1.570027
 C         3.609523        -0.562555        -0.451661
 O         2.366761        -0.203048        -1.257211
 C         1.513043         0.284104        -0.177340
 C         0.000486         0.498552        -0.483932
 C         2.462011         1.345057         0.540263
 C         3.639332         0.419694         0.590959
 C         2.976466        -0.953030         0.821673
 O         1.573564        -0.761023         0.782769
 H         4.461942        -1.935077        -2.031456
 H         4.305138        -0.295948        -2.453920
 H         5.582809        -0.758501        -1.315071
 H        -0.640073         0.750436         0.360247
 H        -0.160208         1.450713        -1.074936
 H        -0.419839        -0.421132        -0.870208
 H         2.444923         2.319369        -0.062867
 H         2.077742         1.620668         1.555695
 H         4.520715         0.692361         1.218732
 H         3.195596        -1.547431         1.697754
