19
Iteration:  1128charge 0 multiplicity 1
 C         4.596069        -0.932686        -1.491977
 C         3.480894        -0.579887        -0.597303
 O         2.233458        -0.112998        -1.198671
 C         1.499018         0.222810        -0.094931
 C         0.124891         0.636471        -0.580216
 C         2.371791         1.335866         0.510365
 C         3.637857         0.461312         0.614333
 C         3.053191        -1.004757         0.794691
 O         1.653581        -0.909199         0.842118
 H         4.777802        -1.989054        -1.374535
 H         4.234155        -0.711709        -2.497285
 H         5.455508        -0.380302        -1.147829
 H        -0.716550         0.666941         0.162102
 H         0.166575         1.532676        -1.209002
 H        -0.203840        -0.238999        -1.257354
 H         2.593828         2.139514        -0.253760
 H         2.039077         1.813718         1.509701
 H         4.476927         0.920801         1.149486
 H         3.499117        -1.826024         1.441213
