19
Iteration:  4508
 C         4.592626        -1.045182        -1.496827
 C         3.511357        -0.504463        -0.555846
 O         2.169494        -0.522152        -1.073356
 C         1.452851         0.115978        -0.054086
 C        -0.037649         0.060089        -0.306466
 C         2.238589         1.480891        -0.010213
 C         3.616738         0.772886         0.243024
 C         3.239727        -0.526757         0.894686
 O         1.851035        -0.597778         1.156783
 H         3.973410        -1.526373        -2.268054
 H         5.126991        -0.350566        -2.159404
 H         5.316730        -1.716581        -0.834690
 H        -0.463069         0.578400         0.504558
 H        -0.155607         0.617084        -1.203037
 H        -0.433494        -0.882743        -0.694694
 H         2.247629         1.828031        -1.136585
 H         2.044245         2.251407         0.749118
 H         4.535813         1.332952         0.241400
 H         3.792157        -1.206467         1.591426
