19
Iteration:   208
 C         4.545692        -1.175227        -1.401449
 C         3.529430        -0.460866        -0.621374
 O         2.222974        -0.762600        -1.132858
 C         1.439423         0.023330        -0.105567
 C        -0.088674         0.066388        -0.291952
 C         2.128858         1.447795         0.064484
 C         3.542665         0.968481         0.107938
 C         3.365070        -0.312417         0.916186
 O         1.960001        -0.554605         1.131328
 H         4.471010        -2.237756        -1.317249
 H         4.424858        -0.934629        -2.437018
 H         5.513769        -0.855203        -1.087174
 H        -0.411184         0.569342         0.648754
 H        -0.315432         0.784540        -1.084615
 H        -0.771565        -0.780785        -0.486808
 H         2.021662         2.186100        -0.792461
 H         1.922021         1.977346         0.969442
 H         4.337003         1.644750         0.515158
 H         4.022656        -0.728521         1.758800
