19
Iteration:  4164
 C         4.608505        -1.201671        -1.380188
 C         3.505879        -0.455553        -0.673093
 O         2.218551        -0.415915        -1.182728
 C         1.457375         0.194948        -0.156861
 C        -0.063701         0.109367        -0.291390
 C         2.260355         1.482800         0.253534
 C         3.665197         0.726271         0.218744
 C         3.186518        -0.619874         0.835603
 O         1.788916        -0.565887         1.011592
 H         5.320317        -0.604806        -1.978291
 H         5.401982        -1.600095        -0.633101
 H         4.095638        -1.866634        -2.038639
 H        -0.476688         0.399371         0.650879
 H        -0.430831         0.669176        -1.094124
 H        -0.200117        -0.939648        -0.153998
 H         2.108314         2.204902        -0.468200
 H         1.973613         1.828359         1.285309
 H         4.575945         1.132178         0.643354
 H         3.753779        -1.094208         1.520428
