19
Iteration:   506
 C         4.589709        -1.037058        -1.381719
 C         3.461595        -0.445390        -0.630609
 O         2.177243        -0.471447        -1.196866
 C         1.443554         0.098588        -0.085373
 C         0.070429         0.167035        -0.265376
 C         2.244098         1.458908         0.036065
 C         3.611273         0.801969         0.358824
 C         3.222665        -0.640372         0.838424
 O         1.840158        -0.690093         1.100620
 H         5.274853        -1.576246        -0.733098
 H         4.186460        -1.776348        -2.096767
 H         5.093540        -0.267480        -1.994554
 H        -0.605486         0.792892         0.402307
 H        -0.275141         0.634511        -1.199984
 H        -0.401091        -0.883668        -0.329921
 H         2.240184         1.757046        -0.963027
 H         1.852838         2.281871         0.744056
 H         4.541789         1.284222         0.489541
 H         3.779909        -1.259822         1.465049
