19
Iteration:  4404charge 0 multiplicity 1
 C         4.579105        -1.057001        -1.480430
 C         3.511931        -0.526698        -0.585284
 O         2.268904        -0.581121        -1.152233
 C         1.444711         0.144131        -0.126004
 C        -0.084941         0.152255        -0.288101
 C         2.249879         1.412962         0.088169
 C         3.570974         0.758583         0.182039
 C         3.232752        -0.517685         0.974410
 O         1.842497        -0.556617         1.083419
 H         4.354575        -2.059623        -1.818773
 H         4.705644        -0.393881        -2.362619
 H         5.502554        -1.271955        -1.175308
 H        -0.408048         0.605021         0.710013
 H        -0.370785         0.844643        -1.143837
 H        -0.358231        -0.931753        -0.187075
 H         2.189505         2.053267        -0.761132
 H         1.887658         1.908516         1.055820
 H         4.493498         1.195318         0.540527
 H         3.854693        -0.897896         1.746916
