19
Iteration:  2962charge 0 multiplicity 1
 C         4.467576        -1.041138        -1.494495
 C         3.515372        -0.504522        -0.533159
 O         2.236612        -0.152307        -1.226407
 C         1.499084         0.281949        -0.140168
 C         0.055991         0.369093        -0.496666
 C         2.351586         1.455931         0.381541
 C         3.653938         0.527527         0.592478
 C         3.113766        -0.886533         0.847152
 O         1.740895        -0.853781         0.911411
 H         5.297825        -1.529039        -0.936773
 H         4.232390        -1.849123        -2.159027
 H         4.816773        -0.390434        -2.235172
 H        -0.504020         0.857730         0.353659
 H        -0.060886         0.994376        -1.393648
 H        -0.478263        -0.586905        -0.856437
 H         2.547191         2.100415        -0.471316
 H         1.891870         1.919618         1.223546
 H         4.638820         0.932727         0.804436
 H         3.772710        -1.530330         1.513299
