19
Iteration:  3788
 C         4.566424        -1.078944        -1.503458
 C         3.489525        -0.498883        -0.599508
 O         2.161913        -0.453314        -1.173740
 C         1.480893         0.231135        -0.102578
 C        -0.010825         0.248130        -0.484759
 C         2.262285         1.462558         0.302382
 C         3.668992         0.667921         0.319278
 C         3.242659        -0.675769         0.952484
 O         1.787501        -0.660698         1.024000
 H         5.501173        -1.156346        -0.927741
 H         4.117929        -2.036649        -2.049221
 H         5.045907        -0.420033        -2.301445
 H        -0.537471         0.471800         0.441050
 H        -0.133754         0.922354        -1.269577
 H        -0.306220        -0.754408        -0.667400
 H         2.325912         2.389442        -0.293803
 H         1.911621         1.625264         1.262357
 H         4.601606         1.040164         0.541009
 H         3.565533        -1.282621         1.735367
