19
Iteration:   794charge 0 multiplicity 1
 C         4.581830        -1.023499        -1.436055
 C         3.515827        -0.492350        -0.590382
 O         2.232731        -0.327017        -1.212699
 C         1.502210         0.153255        -0.183988
 C        -0.022743         0.336477        -0.374176
 C         2.303869         1.424516         0.274534
 C         3.656665         0.631589         0.437781
 C         3.193429        -0.737976         0.917143
 O         1.695699        -0.763960         0.930701
 H         5.302658        -0.314860        -1.790831
 H         5.236482        -1.760644        -0.891010
 H         4.162241        -1.694150        -2.157029
 H        -0.447162         0.770783         0.601399
 H        -0.291729         1.188462        -1.081832
 H        -0.587499        -0.607263        -0.679732
 H         2.333396         2.242139        -0.505346
 H         1.954991         1.799137         1.195552
 H         4.666141         1.164286         0.552719
 H         3.724819        -1.590330         1.407398
