19
Iteration:   551
 C         4.629098        -1.119353        -1.456956
 C         3.485274        -0.499903        -0.624406
 O         2.159742        -0.553686        -1.174439
 C         1.438934         0.117201        -0.056256
 C         0.057012         0.214657        -0.390297
 C         2.216223         1.512448         0.257213
 C         3.575588         0.826972         0.267392
 C         3.272475        -0.568795         0.887322
 O         1.800522        -0.680304         1.029528
 H         5.595312        -0.620661        -1.417624
 H         4.975142        -2.096371        -1.135043
 H         4.339978        -1.156152        -2.488175
 H        -0.548847         0.640469         0.467143
 H        -0.123530         0.934514        -1.226262
 H        -0.439407        -0.767661        -0.650858
 H         2.036084         2.369749        -0.355766
 H         1.789407         1.736542         1.283336
 H         4.581854         1.275577         0.458538
 H         4.016108        -1.126883         1.456619
