19
Iteration:  2412
 C         4.540815        -0.956255        -1.589404
 C         3.474794        -0.555122        -0.590905
 O         2.323604        -0.166103        -1.241635
 C         1.487426         0.263229        -0.118160
 C         0.055972         0.528863        -0.599697
 C         2.396563         1.326581         0.497378
 C         3.646067         0.442061         0.707404
 C         3.069434        -0.932621         0.929426
 O         1.622901        -0.812526         0.849158
 H         4.170659        -1.856005        -2.169965
 H         4.679570        -0.041897        -2.251511
 H         5.526128        -1.284646        -1.125360
 H        -0.490891         0.826776         0.319455
 H         0.106471         1.360867        -1.283469
 H        -0.233075        -0.475700        -1.013155
 H         2.581656         2.223039        -0.133321
 H         2.021123         1.753487         1.447782
 H         4.620746         0.798899         0.964094
 H         3.500192        -1.801998         1.372255
