19
Iteration:  1820charge 0 multiplicity 1
 C         4.519645        -0.983649        -1.482437
 C         3.542750        -0.429456        -0.544772
 O         2.317860         0.078270        -1.243171
 C         1.512680         0.284348        -0.109200
 C         0.112291         0.553475        -0.586820
 C         2.469781         1.285565         0.510465
 C         3.644423         0.337876         0.755924
 C         2.954071        -1.125081         0.767553
 O         1.598657        -0.864664         0.768454
 H         3.884364        -1.069900        -2.358191
 H         5.283025        -0.301900        -1.704242
 H         4.944082        -1.949694        -1.197942
 H        -0.373009         0.917923         0.340889
 H         0.025852         1.405348        -1.375231
 H        -0.277467        -0.399108        -0.898324
 H         2.699596         1.993185        -0.302086
 H         1.992301         1.812361         1.401264
 H         4.492798         0.490406         1.389940
 H         3.279300        -2.139564         1.246370
