19
Iteration:  1030
 C         4.582062        -1.032922        -1.407768
 C         3.470237        -0.516069        -0.575138
 O         2.235909        -0.109641        -1.290832
 C         1.527863         0.315005        -0.142551
 C         0.068046         0.395413        -0.483371
 C         2.410464         1.445008         0.474654
 C         3.661228         0.535317         0.632057
 C         3.043391        -0.970659         0.770924
 O         1.633216        -0.870424         0.835956
 H         4.662616        -0.523289        -2.357026
 H         5.517773        -0.921345        -0.906146
 H         4.279014        -2.024456        -1.578764
 H        -0.511244         0.744541         0.394478
 H        -0.080576         1.083262        -1.356228
 H        -0.264695        -0.612841        -0.730775
 H         2.584002         2.253834        -0.329600
 H         2.167206         1.937665         1.504430
 H         4.692706         0.664545         0.773113
 H         3.565172        -1.724017         1.313376
