19
Iteration:  2043charge 0 multiplicity 1
 C         4.686333        -1.025460        -1.352325
 C         3.474480        -0.459033        -0.656548
 O         2.277846         0.056206        -1.257014
 C         1.474993         0.272188        -0.045628
 C         0.069324         0.647865        -0.457491
 C         2.451531         1.276239         0.497572
 C         3.600717         0.290874         0.648034
 C         3.006816        -1.057269         0.703612
 O         1.547105        -0.872434         0.714120
 H         4.509570        -2.055323        -1.601719
 H         4.988467        -0.493526        -2.275388
 H         5.482170        -1.100379        -0.609861
 H        -0.511077         1.027506         0.449373
 H         0.110639         1.472872        -1.247330
 H        -0.288660        -0.347510        -1.004171
 H         2.670402         2.111779        -0.193649
 H         2.416132         1.807338         1.441060
 H         4.649559         0.391782         0.909228
 H         3.275199        -1.847963         1.441164
