19
Iteration:   441charge 0 multiplicity 1
 C         4.548017        -1.184809        -1.437451
 C         3.484659        -0.421759        -0.619042
 O         2.144269        -0.519052        -1.110479
 C         1.466573         0.110940        -0.070566
 C        -0.051430         0.134283        -0.403890
 C         2.177086         1.493534         0.142548
 C         3.572905         0.823163         0.294280
 C         3.309172        -0.516767         0.885262
 O         1.964590        -0.647884         1.058431
 H         4.239105        -2.208601        -1.548592
 H         4.672562        -0.629577        -2.349376
 H         5.491489        -1.228027        -0.894895
 H        -0.654656         0.630061         0.439803
 H        -0.061338         0.682516        -1.373616
 H        -0.220541        -0.982264        -0.573725
 H         2.083410         2.131814        -0.726412
 H         1.770973         1.926290         1.149403
 H         4.523996         1.316320         0.355990
 H         4.015768        -0.981811         1.545930
