19
Iteration:   707
 C         4.663747        -1.092698        -1.554481
 C         3.520914        -0.505942        -0.567554
 O         2.210223        -0.351716        -1.178464
 C         1.477414         0.294416        -0.205892
 C         0.014289         0.163399        -0.323866
 C         2.375449         1.436005         0.297698
 C         3.641589         0.682981         0.384834
 C         3.088655        -0.725272         0.881666
 O         1.695407        -0.656439         1.003508
 H         5.016474        -2.000538        -1.126380
 H         4.145521        -1.185641        -2.515996
 H         5.442502        -0.399432        -1.541223
 H        -0.526074         0.416760         0.640114
 H        -0.292777         0.560635        -1.364803
 H        -0.192261        -0.930145        -0.439141
 H         2.246673         2.118820        -0.663985
 H         2.028967         1.873322         1.217193
 H         4.533857         1.275094         0.667671
 H         3.406026        -1.379779         1.657018
