19
Iteration:  3582charge 0 multiplicity 1
 C         4.601632        -1.054204        -1.337628
 C         3.422880        -0.454093        -0.657758
 O         2.157690        -0.347326        -1.236657
 C         1.442157         0.144003        -0.042453
 C         0.016738         0.295950        -0.324026
 C         2.342151         1.446304         0.123496
 C         3.620432         0.664289         0.318575
 C         3.248074        -0.783013         0.845738
 O         1.800859        -0.696630         1.038405
 H         5.427105        -0.931430        -0.654223
 H         4.416240        -2.159169        -1.351944
 H         4.688365        -0.493709        -2.184530
 H        -0.737688         0.587907         0.517244
 H        -0.126758         0.896515        -1.259852
 H        -0.516596        -0.719389        -0.428743
 H         2.329155         2.019958        -0.906088
 H         2.017571         2.114939         0.914447
 H         4.699874         1.029426         0.512957
 H         3.820137        -1.503305         1.579678
