19
Iteration:   100charge 0 multiplicity 1
 C         4.630158        -1.093933        -1.338555
 C         3.505226        -0.372286        -0.635408
 O         2.075141        -0.590887        -1.082352
 C         1.446934         0.062869         0.020891
 C        -0.154622         0.047340        -0.178674
 C         2.150396         1.413482        -0.129968
 C         3.527890         0.956926         0.054820
 C         3.417222        -0.365856         0.900120
 O         2.032145        -0.735641         1.140183
 H         4.956106        -0.823958        -2.312057
 H         5.434217        -1.040655        -0.635815
 H         4.354134        -2.144947        -1.380241
 H        -0.731637         0.666305         0.526130
 H        -0.275902         0.389886        -1.172627
 H        -0.463308        -1.009240        -0.148789
 H         1.953480         1.730103        -1.189471
 H         1.986184         2.288045         0.419606
 H         4.387470         1.672171        -0.135117
 H         4.091696        -1.039617         1.475510
