19
Iteration:   152charge 0 multiplicity 1
 C         4.583956        -1.123456        -1.469739
 C         3.498177        -0.462811        -0.603083
 O         2.135540        -0.626468        -1.085334
 C         1.451134         0.171737        -0.198328
 C        -0.111077        -0.226709        -0.239921
 C         2.259775         1.514491        -0.000785
 C         3.618449         0.850400         0.129194
 C         3.294199        -0.357715         0.937062
 O         1.908507        -0.439904         1.188642
 H         4.071677        -1.507594        -2.369806
 H         5.286262        -0.390405        -1.815200
 H         5.149090        -1.944147        -1.068645
 H        -0.597430         0.278749         0.645659
 H        -0.627475         0.052649        -1.148705
 H        -0.160086        -1.335968        -0.046435
 H         2.299057         2.251986        -0.807026
 H         1.918216         1.925799         0.974267
 H         4.640415         1.282227         0.214805
 H         3.865605        -0.687193         1.800622
