19
Iteration:  1006
 C         4.611469        -1.032549        -1.492014
 C         3.511627        -0.523822        -0.629535
 O         2.272362        -0.270950        -1.216406
 C         1.479430         0.168594        -0.136913
 C         0.052132         0.556276        -0.537313
 C         2.278464         1.276768         0.540084
 C         3.641838         0.550854         0.528911
 C         3.120161        -0.799638         0.840896
 O         1.665054        -0.771093         0.856598
 H         5.083829        -0.187023        -2.030476
 H         5.320482        -1.501420        -0.880296
 H         4.097950        -1.702578        -2.195889
 H        -0.495484         0.978479         0.332260
 H         0.231943         1.411783        -1.316259
 H        -0.479793        -0.270979        -0.994528
 H         2.319504         2.276057         0.121774
 H         2.063711         1.339763         1.670667
 H         4.704153         0.779577         0.834124
 H         3.493967        -1.564514         1.519728
