19
Iteration:  3919
 C         4.553957        -0.991596        -1.516906
 C         3.553382        -0.511494        -0.545585
 O         2.223972        -0.426155        -1.218981
 C         1.491908         0.125954        -0.167048
 C        -0.000418         0.289750        -0.345009
 C         2.333362         1.414076         0.171338
 C         3.590828         0.613615         0.411930
 C         3.177730        -0.704058         0.967210
 O         1.703335        -0.625853         1.009974
 H         5.540989        -1.250890        -1.026175
 H         4.326095        -1.945631        -2.177871
 H         4.807807        -0.214552        -2.284577
 H        -0.353387         0.680189         0.613716
 H        -0.413631         0.923310        -1.121036
 H        -0.272929        -0.706201        -0.621430
 H         2.383702         2.166080        -0.701983
 H         1.989535         1.884237         1.072850
 H         4.590903         1.015153         0.861286
 H         3.834586        -1.308186         1.699258
