19
Iteration:  1113charge 0 multiplicity 1
 C         4.614596        -1.009819        -1.458697
 C         3.488102        -0.388184        -0.580275
 O         2.246133        -0.192409        -1.227081
 C         1.420371         0.218353        -0.081195
 C         0.028854         0.656228        -0.638193
 C         2.367342         1.321379         0.538876
 C         3.593196         0.461843         0.628038
 C         3.130324        -0.963287         0.774064
 O         1.684005        -0.945708         0.892175
 H         4.500001        -2.122423        -1.728978
 H         4.820676        -0.497809        -2.388536
 H         5.660917        -0.806884        -1.069418
 H        -0.509490         0.959667         0.243294
 H         0.366447         1.628820        -1.086733
 H        -0.536823         0.088374        -1.316082
 H         2.471677         2.034694        -0.185382
 H         2.052784         1.702581         1.426468
 H         4.619376         0.730307         0.832905
 H         3.633879        -1.825127         1.122034
