19
Iteration:  3584charge 0 multiplicity 1
 C         4.604324        -1.048320        -1.347778
 C         3.427371        -0.453398        -0.636542
 O         2.149784        -0.352252        -1.249343
 C         1.441058         0.142842        -0.040222
 C         0.016140         0.287974        -0.315653
 C         2.342078         1.458699         0.121774
 C         3.620962         0.644882         0.315935
 C         3.243270        -0.787563         0.837246
 O         1.809776        -0.690524         1.036383
 H         5.356250        -0.974544        -0.575827
 H         4.441755        -2.161426        -1.331380
 H         4.720554        -0.407640        -2.164149
 H        -0.721980         0.614196         0.511983
 H        -0.178743         0.903246        -1.261390
 H        -0.477611        -0.740518        -0.457692
 H         2.339535         2.044419        -0.915821
 H         2.060166         2.190256         0.931356
 H         4.650632         0.960296         0.508378
 H         3.797248        -1.437002         1.621912
