19
Iteration:  1559
 C         4.626077        -1.059312        -1.528003
 C         3.539151        -0.475746        -0.549311
 O         2.271562        -0.122322        -1.251116
 C         1.486410         0.291157        -0.146636
 C         0.194033         0.863007        -0.605790
 C         2.399293         1.259912         0.781326
 C         3.632420         0.391505         0.713472
 C         2.989671        -1.041830         0.764052
 O         1.506594        -0.956717         0.671563
 H         5.763868        -0.739088        -1.520402
 H         4.751976        -2.178154        -1.583217
 H         4.252392        -0.556873        -2.469239
 H        -0.503878         1.157989         0.215658
 H         0.483552         1.740519        -1.188405
 H        -0.296476         0.206959        -1.436311
 H         2.370323         2.268477         0.511121
 H         1.895766         1.075974         1.728869
 H         4.657263         0.613662         1.077882
 H         3.444701        -1.826886         1.459765
