19
Iteration:  4463
 C         4.589377        -1.324403        -1.382686
 C         3.494029        -0.398651        -0.583087
 O         2.177559        -0.400063        -1.207679
 C         1.482243         0.111839        -0.089469
 C        -0.000674         0.020650        -0.247269
 C         2.180420         1.477234         0.124277
 C         3.613286         0.923116         0.128944
 C         3.269565        -0.533859         0.903523
 O         1.870533        -0.604956         1.054089
 H         4.023580        -1.703392        -2.215685
 H         5.287906        -0.662345        -1.789444
 H         5.059519        -1.942570        -0.559367
 H        -0.372115         0.523085         0.621226
 H        -0.447187         0.435970        -1.115636
 H        -0.413502        -0.990383        -0.249503
 H         1.972971         2.264486        -0.742027
 H         1.869091         1.896974         1.103427
 H         4.472033         1.539640         0.398793
 H         3.928053        -1.336656         1.432750
