19
Iteration:   972
 C         4.531424        -0.949841        -1.453527
 C         3.456780        -0.494842        -0.549417
 O         2.257348        -0.259441        -1.172235
 C         1.481195         0.222138        -0.131990
 C         0.112733         0.572101        -0.508749
 C         2.332777         1.358597         0.328590
 C         3.568162         0.512382         0.582992
 C         3.128361        -0.849308         0.828548
 O         1.734392        -0.939895         0.892336
 H         5.487284        -0.401268        -1.349954
 H         4.726454        -1.994576        -1.297584
 H         4.313324        -0.990615        -2.559055
 H        -0.525997         0.869490         0.345160
 H         0.104173         1.465272        -1.237210
 H        -0.439707        -0.227586        -1.066152
 H         2.470747         2.056726        -0.482896
 H         2.021144         1.893097         1.274185
 H         4.592749         0.883447         0.940301
 H         3.725052        -1.580345         1.436446
