19
Iteration:  1087
 C         4.569473        -1.053868        -1.444526
 C         3.491291        -0.497619        -0.568650
 O         2.269008        -0.203119        -1.276804
 C         1.509068         0.274763        -0.172541
 C         0.132002         0.551124        -0.456085
 C         2.314808         1.294697         0.575925
 C         3.583116         0.552375         0.558842
 C         3.097290        -0.891336         0.804279
 O         1.650055        -0.849740         0.727071
 H         4.268608        -1.720530        -2.213019
 H         5.358478        -0.307872        -1.843106
 H         5.252644        -1.588418        -0.792047
 H        -0.236970         0.872547         0.536553
 H         0.166532         1.377070        -1.121591
 H        -0.525143        -0.262326        -0.863368
 H         2.286880         2.330490         0.010534
 H         2.033480         1.388181         1.710521
 H         4.474685         0.977764         1.067723
 H         3.529427        -1.737076         1.401496
