19
Iteration:   947
 C         4.627053        -0.989936        -1.444737
 C         3.494501        -0.503648        -0.564192
 O         2.275325        -0.242737        -1.286850
 C         1.469435         0.279793        -0.150361
 C         0.018770         0.376657        -0.402152
 C         2.432210         1.416029         0.411628
 C         3.654349         0.533908         0.521889
 C         3.042467        -0.889199         0.841368
 O         1.623401        -0.772457         0.885993
 H         5.641316        -0.932271        -0.950266
 H         4.497794        -2.105094        -1.896369
 H         4.759457        -0.420694        -2.431887
 H        -0.670315         0.530716         0.460332
 H        -0.233178         1.087092        -1.177937
 H        -0.340947        -0.593056        -0.873782
 H         2.637758         2.205240        -0.307977
 H         2.308429         1.815684         1.360305
 H         4.549951         0.952001         0.887490
 H         3.283847        -1.729833         1.459196
