19
Iteration:  1007charge 0 multiplicity 1
 C         4.598884        -1.036610        -1.483977
 C         3.509789        -0.525438        -0.636487
 O         2.278261        -0.262944        -1.215947
 C         1.477927         0.179392        -0.137386
 C         0.053702         0.554177        -0.535677
 C         2.288382         1.274537         0.538280
 C         3.640164         0.548236         0.519033
 C         3.118527        -0.805509         0.846968
 O         1.666655        -0.774381         0.853723
 H         5.062148        -0.198100        -2.014223
 H         5.341856        -1.425019        -0.874655
 H         4.115735        -1.693675        -2.175482
 H        -0.501773         0.935369         0.344359
 H         0.235182         1.374715        -1.331558
 H        -0.463591        -0.286719        -0.969520
 H         2.337972         2.304781         0.105349
 H         2.056400         1.326258         1.694274
 H         4.661032         0.798899         0.843650
 H         3.468563        -1.560520         1.517331
