19
Iteration:  4327charge 0 multiplicity 1
 C         4.592519        -1.222322        -1.425276
 C         3.556928        -0.469026        -0.645891
 O         2.182003        -0.524958        -1.177125
 C         1.425936         0.181495        -0.101426
 C        -0.009856         0.154957        -0.307254
 C         2.182759         1.458438         0.202768
 C         3.586881         0.805026         0.211999
 C         3.267907        -0.514441         0.863881
 O         1.842674        -0.610426         1.034821
 H         5.036492        -2.141874        -0.951772
 H         4.323487        -1.702766        -2.423818
 H         5.369486        -0.588823        -1.648605
 H        -0.469672         0.568136         0.660471
 H        -0.392211         0.712131        -1.239577
 H        -0.341094        -0.991970        -0.242456
 H         2.077772         2.430131        -0.302063
 H         1.985535         1.945360         1.297348
 H         4.431138         1.385515         0.578278
 H         4.031069        -0.930207         1.638115
