19
Iteration:  3978
 C         4.561653        -1.237660        -1.408186
 C         3.474808        -0.392823        -0.609334
 O         2.194759        -0.261630        -1.210483
 C         1.448132         0.127403         0.000282
 C         0.015174         0.250641        -0.444539
 C         2.301087         1.450484         0.213475
 C         3.558389         0.785529         0.373502
 C         3.282405        -0.672069         0.800989
 O         1.812330        -0.811112         1.079673
 H         4.693273        -2.213057        -0.938497
 H         4.128185        -1.220903        -2.438708
 H         5.463804        -0.633574        -1.269797
 H        -0.721893         0.534784         0.272397
 H         0.027189         0.869390        -1.329730
 H        -0.392699        -0.740763        -0.678625
 H         2.302555         1.929247        -0.699499
 H         1.999105         2.132322         1.032479
 H         4.410220         1.373810         0.406229
 H         3.961771        -1.355434         1.309256
