19
Iteration:  3723charge 0 multiplicity 1
 C         4.561857        -1.094712        -1.387242
 C         3.490656        -0.485962        -0.625780
 O         2.251508        -0.407689        -1.256716
 C         1.447554         0.211866        -0.098915
 C        -0.061217         0.208714        -0.256104
 C         2.342395         1.521888         0.126550
 C         3.675643         0.741634         0.409646
 C         3.161465        -0.691085         0.872449
 O         1.766870        -0.741056         0.964088
 H         5.042046        -2.005749        -0.962956
 H         4.325907        -1.573883        -2.439423
 H         5.440657        -0.382748        -1.587039
 H        -0.499489         0.602720         0.694028
 H        -0.370157         0.838215        -1.093537
 H        -0.482779        -0.778262        -0.160063
 H         2.291317         2.097348        -0.835241
 H         1.925193         2.091538         0.888668
 H         4.560622         1.031553         0.831533
 H         3.736578        -1.240061         1.534761
