19
Iteration:  4028charge 0 multiplicity 1
 C         4.638781        -1.119224        -1.414381
 C         3.495404        -0.499961        -0.580145
 O         2.228679        -0.419099        -1.266591
 C         1.477898         0.217342        -0.148017
 C        -0.022995         0.192920        -0.287333
 C         2.242325         1.515723         0.216297
 C         3.657042         0.690751         0.296236
 C         3.200232        -0.677228         0.901120
 O         1.773239        -0.669097         1.002728
 H         4.125689        -1.869994        -1.983071
 H         5.064114        -0.351150        -2.042336
 H         5.348434        -1.493192        -0.705913
 H        -0.480194         0.518862         0.668439
 H        -0.459512         0.797258        -1.130903
 H        -0.436534        -0.822414        -0.231158
 H         2.125133         2.259056        -0.673601
 H         1.840316         1.935354         1.132790
 H         4.598053         1.139905         0.510325
 H         3.667586        -1.297637         1.546692
