19
Iteration:  4470
 C         4.561573        -1.264591        -1.391031
 C         3.530068        -0.441550        -0.608129
 O         2.217704        -0.440183        -1.199426
 C         1.469310         0.131959        -0.163494
 C         0.037759        -0.010900        -0.242392
 C         2.178869         1.502684         0.149980
 C         3.570746         0.867792         0.156744
 C         3.247269        -0.496384         0.910087
 O         1.874026        -0.590642         1.061266
 H         3.885430        -1.779906        -2.111993
 H         5.377801        -0.641205        -1.852351
 H         4.938304        -2.005783        -0.778918
 H        -0.407240         0.525199         0.678800
 H        -0.420725         0.640183        -1.077682
 H        -0.445803        -0.976513        -0.070236
 H         2.064960         2.261726        -0.566612
 H         1.802423         1.975684         1.083243
 H         4.498248         1.445592         0.297953
 H         3.783358        -1.166444         1.543440
