19
Iteration:  4933
 C         4.513205        -1.270193        -1.397484
 C         3.510470        -0.466995        -0.640255
 O         2.180627        -0.426531        -1.183433
 C         1.458830         0.219542        -0.081485
 C         0.062979        -0.096837        -0.366165
 C         2.192648         1.544066         0.199527
 C         3.596987         0.793887         0.228370
 C         3.265390        -0.508526         0.847708
 O         1.871992        -0.509670         1.094464
 H         5.368382        -1.601833        -0.745746
 H         4.102307        -2.330719        -1.608989
 H         4.782849        -0.802153        -2.471833
 H        -0.650517         0.490783         0.344611
 H        -0.172380         0.375450        -1.431772
 H        -0.216441        -1.179716        -0.265261
 H         2.042917         2.420414        -0.401860
 H         1.979504         1.901325         1.153491
 H         4.468690         1.381616         0.585333
 H         3.933725        -0.996073         1.463623
