19
Iteration:  2799charge 0 multiplicity 1
 C         4.556592        -1.098441        -1.444266
 C         3.485596        -0.438316        -0.599066
 O         2.297498        -0.154270        -1.231681
 C         1.523675         0.235315        -0.145743
 C         0.076416         0.490335        -0.432937
 C         2.390526         1.316570         0.478237
 C         3.618732         0.574778         0.549449
 C         3.083829        -0.905785         0.838820
 O         1.635169        -0.862373         0.786640
 H         4.409526        -0.525677        -2.435499
 H         5.566872        -0.751878        -1.058874
 H         4.295672        -2.150182        -1.409125
 H        -0.431222         0.861788         0.503603
 H        -0.025055         1.137188        -1.335177
 H        -0.453903        -0.417513        -0.889524
 H         2.541023         2.144914        -0.339398
 H         1.957369         1.696480         1.494069
 H         4.488401         1.082530         0.945736
 H         3.587402        -1.659210         1.384620
