19
Iteration:  4200charge 0 multiplicity 1
 C         4.539293        -1.054915        -1.434928
 C         3.498210        -0.437014        -0.595929
 O         2.198262        -0.489562        -1.152322
 C         1.478921         0.105484        -0.083671
 C        -0.002297         0.246238        -0.352478
 C         2.262184         1.453235         0.085099
 C         3.593502         0.725510         0.310067
 C         3.218003        -0.586251         0.918683
 O         1.880501        -0.726582         1.084999
 H         5.332430        -0.286183        -1.715417
 H         4.800802        -2.070555        -1.006375
 H         4.034567        -1.386898        -2.403032
 H        -0.356207         0.774051         0.525156
 H        -0.289008         0.880469        -1.201558
 H        -0.558854        -0.616191        -0.587865
 H         2.191409         1.802159        -0.959015
 H         1.807152         2.154123         0.698847
 H         4.584088         1.117524         0.528797
 H         3.828885        -1.093984         1.723700
