19
Iteration:  4161
 C         4.609518        -1.197166        -1.354027
 C         3.510187        -0.431131        -0.680265
 O         2.201189        -0.391378        -1.206071
 C         1.450657         0.177872        -0.144360
 C        -0.060632         0.102066        -0.294421
 C         2.268716         1.489725         0.249318
 C         3.638171         0.713887         0.215921
 C         3.225891        -0.634346         0.842232
 O         1.767666        -0.575420         1.025544
 H         5.258755        -0.694126        -2.026868
 H         5.320707        -1.526355        -0.699400
 H         4.136860        -1.970089        -1.950767
 H        -0.438899         0.470307         0.698808
 H        -0.435395         0.653655        -1.191427
 H        -0.189167        -1.053684        -0.252471
 H         2.213328         2.320021        -0.529964
 H         2.053952         1.953259         1.294982
 H         4.610737         1.108188         0.626696
 H         3.937277        -1.187466         1.578890
