19
Iteration:  4626charge 0 multiplicity 1
 C         4.542965        -1.278592        -1.397588
 C         3.489800        -0.449434        -0.632757
 O         2.149077        -0.426554        -1.200901
 C         1.477574         0.142952        -0.111345
 C        -0.003420        -0.004469        -0.337587
 C         2.191835         1.500885         0.249263
 C         3.638885         0.852631         0.239904
 C         3.303788        -0.519232         0.870390
 O         1.846038        -0.564876         1.042727
 H         4.894651        -2.206492        -0.938952
 H         4.262612        -1.762030        -2.265376
 H         5.442159        -0.623153        -1.675430
 H        -0.353295         0.568826         0.525838
 H        -0.186496         0.544890        -1.263512
 H        -0.362479        -1.095447        -0.443034
 H         2.110996         2.393187        -0.516628
 H         1.892285         1.860486         1.229394
 H         4.549519         1.391704         0.305972
 H         3.814255        -0.891262         1.688658
