19
Iteration:  1538
 C         4.530665        -1.060660        -1.512031
 C         3.510332        -0.561488        -0.550020
 O         2.467716        -0.065378        -1.274604
 C         1.504877         0.341801        -0.191191
 C         0.152146         0.794989        -0.526134
 C         2.345905         1.233067         0.722188
 C         3.597172         0.316391         0.714018
 C         2.946768        -1.008413         0.721770
 O         1.573580        -0.852103         0.657072
 H         5.543016        -0.654244        -1.138278
 H         4.691894        -2.108027        -1.463702
 H         4.276251        -0.683522        -2.514270
 H        -0.325942         0.741450         0.468911
 H        -0.043968         1.772730        -0.925947
 H        -0.372135         0.055886        -1.219035
 H         2.472112         2.249151         0.319802
 H         2.124879         1.171544         1.787306
 H         4.421819         0.646886         1.353665
 H         3.181504        -1.932194         1.331977
