19
Iteration:  1457
 C         4.583016        -1.026587        -1.472361
 C         3.517402        -0.530732        -0.594527
 O         2.379929        -0.143816        -1.272666
 C         1.520950         0.306783        -0.210491
 C         0.160701         0.822675        -0.492411
 C         2.342809         1.258296         0.672191
 C         3.589806         0.374962         0.726439
 C         3.008813        -0.996548         0.715813
 O         1.522264        -0.909535         0.706701
 H         5.293743        -1.658157        -0.948061
 H         4.121855        -1.609030        -2.409101
 H         5.293039        -0.276121        -1.909591
 H        -0.378161         1.043210         0.442302
 H         0.335060         1.746176        -1.140422
 H        -0.403613         0.039276        -0.954913
 H         2.677478         2.182849         0.445000
 H         1.676308         1.377063         1.478243
 H         4.488431         0.557421         1.369354
 H         3.457112        -1.811396         1.213592
