19
Iteration:  4134charge 0 multiplicity 1
 C         4.483276        -1.172426        -1.308553
 C         3.423028        -0.483625        -0.632314
 O         2.166934        -0.324912        -1.203483
 C         1.455448         0.177974        -0.049095
 C        -0.020387         0.164211        -0.348486
 C         2.263284         1.450866         0.155691
 C         3.672519         0.804498         0.362988
 C         3.255095        -0.634332         0.835317
 O         1.888237        -0.725852         0.993270
 H         4.590402        -0.855881        -2.421837
 H         5.568431        -0.957117        -0.830477
 H         4.446295        -2.311036        -1.398046
 H        -0.580675         0.607731         0.479099
 H        -0.161742         0.636078        -1.344869
 H        -0.075375        -0.879083        -0.603309
 H         2.186293         1.955466        -0.836616
 H         1.924591         2.207305         0.809302
 H         4.624717         1.204570         0.629367
 H         3.888805        -1.229371         1.378476
