19
Iteration:  4351charge 0 multiplicity 1
 C         4.569792        -1.069411        -1.442805
 C         3.453667        -0.491014        -0.582975
 O         2.138737        -0.498917        -1.160755
 C         1.428320         0.110769        -0.044684
 C        -0.026190         0.120855        -0.364268
 C         2.268432         1.467468         0.067723
 C         3.620019         0.782583         0.232620
 C         3.285456        -0.636141         0.924748
 O         1.881534        -0.594902         1.141854
 H         4.946631        -2.065058        -1.112190
 H         4.254667        -1.278642        -2.493403
 H         5.438447        -0.390928        -1.504806
 H        -0.643937         0.643840         0.389378
 H         0.008625         0.788066        -1.266376
 H        -0.516212        -0.823930        -0.594414
 H         2.247368         2.217424        -0.742580
 H         1.916272         2.141726         0.978341
 H         4.615027         1.238011         0.171808
 H         3.897684        -1.145569         1.681923
