19
Iteration:  3599
 C         4.634202        -1.043025        -1.343703
 C         3.438822        -0.589127        -0.656385
 O         2.134280        -0.419269        -1.229641
 C         1.467146         0.265050        -0.102404
 C        -0.043195         0.216758        -0.281222
 C         2.389465         1.480259         0.158336
 C         3.619245         0.660093         0.338208
 C         3.151052        -0.696735         0.854059
 O         1.790045        -0.675182         1.008488
 H         5.543541        -1.170339        -0.677772
 H         4.503107        -1.881330        -1.989708
 H         5.173356        -0.334598        -2.161170
 H        -0.441632         0.569553         0.619285
 H        -0.233892         0.867872        -1.100574
 H        -0.380635        -0.776490        -0.457803
 H         2.421505         2.019734        -0.722403
 H         2.131571         2.094265         1.049695
 H         4.569860         1.101400         0.542141
 H         3.718665        -1.252380         1.512881
