19
Iteration:  2207
 C         4.632476        -1.048547        -1.348335
 C         3.485247        -0.444132        -0.566602
 O         2.264481        -0.080712        -1.269008
 C         1.510469         0.292304        -0.117222
 C         0.127288         0.650470        -0.358420
 C         2.408248         1.374304         0.441185
 C         3.637857         0.443252         0.641493
 C         3.007037        -1.024935         0.763956
 O         1.594349        -1.016193         0.638231
 H         5.119450        -0.208536        -1.844735
 H         5.435565        -1.568155        -0.706567
 H         4.124758        -1.653008        -2.124195
 H        -0.443680         0.984241         0.580531
 H         0.183986         1.648845        -1.070044
 H        -0.493245        -0.162332        -0.857345
 H         2.428072         2.248198        -0.351903
 H         1.878761         1.903662         1.359358
 H         4.641083         0.635820         1.024817
 H         3.360445        -1.949681         1.277796
