19
Iteration:  2244charge 0 multiplicity 1
 C         4.602871        -0.998684        -1.473489
 C         3.541471        -0.453626        -0.592418
 O         2.237989        -0.182737        -1.304034
 C         1.515060         0.303381        -0.225035
 C         0.059365         0.644291        -0.566191
 C         2.347198         1.295115         0.640520
 C         3.694213         0.390940         0.616729
 C         3.041219        -1.012854         0.834266
 O         1.601841        -0.803074         0.873115
 H         5.472284        -0.332982        -1.499926
 H         4.817605        -2.025199        -1.269216
 H         4.330555        -1.029678        -2.514027
 H        -0.533564         0.931770         0.346944
 H         0.198828         1.499791        -1.373099
 H        -0.274660        -0.237433        -1.127587
 H         2.401642         2.294866         0.349389
 H         1.947313         1.211734         1.595235
 H         4.739113         0.522651         0.918963
 H         3.523790        -1.836288         1.330099
