19
Iteration:  1811
 C         4.535578        -1.001687        -1.468760
 C         3.495519        -0.415433        -0.569077
 O         2.390972         0.034820        -1.216046
 C         1.477062         0.238372        -0.119969
 C         0.112757         0.603201        -0.524866
 C         2.441581         1.318438         0.540583
 C         3.609034         0.335545         0.706164
 C         2.996175        -1.030125         0.743898
 O         1.551024        -0.938171         0.747813
 H         4.065371        -1.329634        -2.484025
 H         5.278221        -0.249025        -1.714860
 H         4.977393        -1.957874        -1.028931
 H        -0.508133         1.012524         0.330777
 H         0.220153         1.410992        -1.383479
 H        -0.505588        -0.194747        -0.981465
 H         2.864116         1.962709        -0.152421
 H         2.280458         1.770295         1.493514
 H         4.466568         0.707157         1.273961
 H         3.455694        -2.009143         1.119091
