19
Iteration:  4825charge 0 multiplicity 1
 C         4.619431        -1.048409        -1.468494
 C         3.439977        -0.508525        -0.598718
 O         2.098725        -0.507926        -1.126400
 C         1.475940         0.089927        -0.045858
 C        -0.004044         0.106835        -0.360599
 C         2.310955         1.473038         0.017056
 C         3.608767         0.719807         0.273313
 C         3.307642        -0.512166         0.898342
 O         1.794956        -0.605055         1.161520
 H         5.458198        -0.760127        -0.832912
 H         4.522614        -2.078960        -1.748385
 H         4.796369        -0.567918        -2.442665
 H        -0.666752         0.456250         0.500212
 H        -0.182708         0.851607        -1.212147
 H        -0.324403        -0.925100        -0.559981
 H         2.299890         2.104107        -0.967919
 H         2.004250         2.152735         0.855974
 H         4.507590         1.164838         0.452734
 H         3.862209        -1.190160         1.502773
