19
Iteration:  1286
 C         4.616978        -0.937565        -1.473893
 C         3.455081        -0.545320        -0.584659
 O         2.253906        -0.003828        -1.240576
 C         1.520825         0.306321        -0.104033
 C         0.061418         0.503506        -0.617055
 C         2.591697         1.322211         0.588078
 C         3.636620         0.298464         0.778054
 C         2.947614        -1.016203         0.719632
 O         1.549445        -0.799717         0.809687
 H         4.321759        -0.606959        -2.470421
 H         5.558890        -0.567670        -1.245014
 H         4.807324        -1.961106        -1.759881
 H        -0.627590         0.673492         0.206395
 H        -0.039172         1.452097        -1.225531
 H        -0.184793        -0.285473        -1.274036
 H         2.964219         2.206808        -0.131808
 H         2.088704         1.817707         1.514521
 H         4.620568         0.234585         1.269764
 H         3.348427        -2.031525         1.017447
