19
Iteration:   634charge 0 multiplicity 1
 C         4.630358        -1.125721        -1.441299
 C         3.476901        -0.458246        -0.572076
 O         2.168728        -0.429138        -1.263864
 C         1.446596         0.130694        -0.054874
 C        -0.051417         0.252467        -0.407994
 C         2.240274         1.397335         0.281461
 C         3.605235         0.752712         0.334849
 C         3.224506        -0.636327         0.870619
 O         1.882933        -0.682681         1.014175
 H         4.146910        -1.358620        -2.425982
 H         5.444340        -0.361209        -1.373310
 H         5.094859        -2.038990        -0.870697
 H        -0.582220         0.629831         0.479302
 H         0.019410         0.958095        -1.196890
 H        -0.553896        -0.677408        -0.735017
 H         2.307563         2.154078        -0.535781
 H         1.881371         1.824632         1.273525
 H         4.447776         1.443827         0.447533
 H         3.782433        -1.294883         1.482918
