19
Iteration:  4392charge 0 multiplicity 1
 C         4.615146        -1.067611        -1.565228
 C         3.575981        -0.530072        -0.542060
 O         2.183961        -0.589373        -1.166623
 C         1.465516         0.067314        -0.127832
 C        -0.031211         0.132883        -0.258866
 C         2.262833         1.527105         0.034819
 C         3.589068         0.733229         0.292258
 C         3.261755        -0.524912         1.007213
 O         1.801238        -0.572969         1.091414
 H         4.314668        -2.096966        -1.781290
 H         4.379650        -0.495569        -2.503573
 H         5.490450        -0.751968        -1.133636
 H        -0.498134         0.706607         0.618025
 H        -0.404775         0.684433        -1.197353
 H        -0.697427        -0.782187        -0.549485
 H         2.205927         2.130507        -0.840250
 H         2.077244         2.169392         0.938366
 H         4.524563         1.294802         0.354353
 H         3.665713        -1.075906         1.901182
