19
Iteration:  1613charge 0 multiplicity 1
 C         4.698974        -0.981314        -1.484494
 C         3.467540        -0.522636        -0.557752
 O         2.387671        -0.048515        -1.270492
 C         1.505223         0.389099        -0.167822
 C         0.066570         0.646379        -0.452189
 C         2.533957         1.241140         0.700326
 C         3.648584         0.274429         0.692367
 C         2.883415        -1.058558         0.767143
 O         1.461806        -0.780176         0.586350
 H         5.594861        -1.061547        -0.717599
 H         4.501724        -2.003330        -2.000610
 H         4.909072        -0.229673        -2.316961
 H        -0.455984         0.981596         0.471787
 H        -0.220994         1.361264        -1.243370
 H        -0.322439        -0.375354        -0.829927
 H         2.738281         2.027267         0.080996
 H         2.063752         1.551947         1.606245
 H         4.519350         0.430411         1.370933
 H         3.107988        -2.032203         1.218521
