19
Iteration:  1069
 C         4.635865        -1.091385        -1.410262
 C         3.521192        -0.490120        -0.578062
 O         2.361976        -0.068533        -1.319824
 C         1.463530         0.259560        -0.200940
 C        -0.009269         0.447852        -0.368978
 C         2.386813         1.431006         0.527894
 C         3.641672         0.461224         0.587458
 C         3.043001        -0.897349         0.780174
 O         1.608615        -0.857331         0.768533
 H         4.115590        -1.285580        -2.400197
 H         5.552553        -0.482130        -1.578575
 H         5.123918        -2.047423        -1.052089
 H        -0.477639         0.757435         0.554476
 H        -0.350478         1.161547        -1.155391
 H        -0.313894        -0.545813        -0.669930
 H         2.441836         2.284277        -0.053112
 H         1.914590         1.669039         1.402806
 H         4.662274         0.786160         0.923748
 H         3.291694        -1.680509         1.469582
