19
Iteration:   856charge 0 multiplicity 1
 C         4.536771        -1.037782        -1.482705
 C         3.515805        -0.472829        -0.592189
 O         2.283586        -0.356221        -1.267575
 C         1.479213         0.182311        -0.162481
 C         0.018956         0.399585        -0.461426
 C         2.290104         1.368549         0.422075
 C         3.672423         0.629261         0.457960
 C         3.172226        -0.796045         0.836929
 O         1.697631        -0.725008         0.970697
 H         3.920596        -1.600914        -2.252616
 H         5.284664        -0.205627        -1.831585
 H         5.005782        -1.858070        -0.925311
 H        -0.391415         0.757021         0.452205
 H        -0.151258         1.113569        -1.289236
 H        -0.412837        -0.547122        -0.692033
 H         2.209646         2.289892        -0.169367
 H         1.894710         1.608841         1.446047
 H         4.655116         1.077080         0.861529
 H         3.744673        -1.365879         1.605952
