19
Iteration:  2970charge 0 multiplicity 1
 C         4.529211        -1.061816        -1.525902
 C         3.481106        -0.461580        -0.511745
 O         2.204662        -0.178212        -1.187011
 C         1.510307         0.247397        -0.140212
 C         0.057219         0.403113        -0.499436
 C         2.391389         1.385167         0.322863
 C         3.666748         0.603088         0.593373
 C         3.137170        -0.903776         0.883221
 O         1.724473        -0.848358         0.885342
 H         5.382691        -1.653664        -1.230840
 H         3.736989        -1.678347        -2.136823
 H         4.924841        -0.121336        -1.979326
 H        -0.501295         0.813451         0.362409
 H        -0.004229         0.991835        -1.438164
 H        -0.472016        -0.523302        -0.824948
 H         2.437903         2.096842        -0.450836
 H         1.958691         1.780834         1.199330
 H         4.540383         1.012468         0.941538
 H         3.537940        -1.585301         1.600025
