19
Iteration:  1703charge 0 multiplicity 1
 C         4.534227        -0.989243        -1.474989
 C         3.488621        -0.518586        -0.545318
 O         2.385024        -0.015038        -1.266829
 C         1.545710         0.314434        -0.223040
 C         0.110753         0.601258        -0.584118
 C         2.414027         1.203672         0.662240
 C         3.612296         0.303215         0.717017
 C         2.952101        -1.048299         0.778308
 O         1.588077        -0.740776         0.751794
 H         4.727104        -2.159578        -1.587440
 H         4.086695        -0.788229        -2.461177
 H         5.507473        -0.376542        -1.544301
 H        -0.488922         0.729452         0.335581
 H         0.094636         1.640703        -1.088343
 H        -0.199895        -0.116593        -1.316382
 H         2.626532         2.237413         0.455206
 H         1.978768         1.109614         1.630622
 H         4.560131         0.579477         1.136454
 H         3.326811        -1.907264         1.391175
