19
Iteration:  2893
 C         4.623749        -1.056713        -1.390814
 C         3.524988        -0.376454        -0.616865
 O         2.285522        -0.221575        -1.315388
 C         1.425794         0.161178        -0.067995
 C         0.066474         0.497105        -0.303891
 C         2.318338         1.363806         0.373079
 C         3.631761         0.577173         0.556479
 C         3.109293        -0.874977         0.750753
 O         1.656073        -0.851745         0.825834
 H         5.549223        -0.542468        -1.238697
 H         4.888768        -2.133027        -1.088196
 H         4.233692        -1.223519        -2.419814
 H        -0.454997         0.795192         0.604088
 H         0.044707         1.211261        -1.163986
 H        -0.515578        -0.108389        -0.968126
 H         2.365811         1.957534        -0.486770
 H         1.983467         1.812588         1.263402
 H         4.659867         0.808701         0.988848
 H         3.456080        -1.649920         1.405966
