19
Iteration:  3660
 C         4.524924        -1.158079        -1.458482
 C         3.488854        -0.381444        -0.591157
 O         2.140172        -0.390904        -1.105980
 C         1.480505         0.183783        -0.013166
 C         0.050865         0.213999        -0.466087
 C         2.271959         1.452014         0.174632
 C         3.684959         0.798922         0.374434
 C         3.247550        -0.690438         0.890414
 O         1.847452        -0.787511         1.021030
 H         4.706309        -2.023559        -0.901412
 H         3.862092        -1.546852        -2.285431
 H         5.235469        -0.529795        -1.791232
 H        -0.678147         0.786305         0.220843
 H        -0.000326         0.984124        -1.355030
 H        -0.351915        -0.732839        -0.962502
 H         1.940570         1.880412        -0.849890
 H         1.894219         2.188779         0.918100
 H         4.556968         1.314111         0.500679
 H         3.728710        -1.245496         1.629333
