19
Iteration:  3375
 C         4.524965        -1.156854        -1.542507
 C         3.510088        -0.469600        -0.558031
 O         2.216068        -0.354319        -1.209262
 C         1.536244         0.227023        -0.151803
 C        -0.043421         0.156235        -0.400421
 C         2.360556         1.495560         0.288536
 C         3.621952         0.704217         0.362990
 C         3.184380        -0.645654         0.935673
 O         1.746315        -0.653038         1.042736
 H         5.099314        -2.005750        -1.153502
 H         3.988331        -1.864816        -2.208749
 H         5.178231        -0.477803        -2.012992
 H        -0.603196         0.383957         0.572182
 H        -0.305859         0.672463        -1.309571
 H        -0.057121        -0.971574        -0.457792
 H         2.186341         2.330488        -0.500410
 H         1.911304         1.853924         1.257768
 H         4.671700         1.063185         0.360028
 H         3.879174        -1.339225         1.587189
