19
Iteration:  1071
 C         4.642755        -1.102194        -1.411278
 C         3.513171        -0.487229        -0.588344
 O         2.359739        -0.076238        -1.305176
 C         1.483718         0.243635        -0.197299
 C         0.009435         0.452386        -0.378360
 C         2.374287         1.428049         0.533866
 C         3.639146         0.473176         0.579345
 C         3.028413        -0.893458         0.796032
 O         1.614137        -0.856027         0.757566
 H         4.121754        -1.301118        -2.407244
 H         5.436589        -0.408897        -1.602836
 H         5.137313        -2.038426        -1.037441
 H        -0.448207         0.782765         0.566930
 H        -0.348983         1.230773        -1.150602
 H        -0.367502        -0.522274        -0.665940
 H         2.459663         2.332091        -0.005743
 H         1.834461         1.636513         1.448763
 H         4.649277         0.768770         0.834067
 H         3.337164        -1.685083         1.442497
