19
Iteration:  3090
 C         4.550182        -1.140241        -1.460940
 C         3.524114        -0.418276        -0.579451
 O         2.218748        -0.270434        -1.237983
 C         1.504399         0.246493        -0.155203
 C         0.050915         0.281937        -0.456751
 C         2.348993         1.460039         0.405459
 C         3.590097         0.640158         0.419754
 C         3.139066        -0.759633         0.877118
 O         1.744891        -0.798779         0.959573
 H         4.080782        -1.616298        -2.349593
 H         5.140003        -0.355947        -2.120102
 H         4.993610        -2.058330        -1.049519
 H        -0.472915         0.568746         0.473716
 H        -0.145931         1.043394        -1.171674
 H        -0.552393        -0.601505        -0.754664
 H         2.433899         2.324302        -0.244724
 H         1.932976         1.771860         1.387489
 H         4.556578         1.030054         0.851802
 H         3.806731        -1.474210         1.510506
