19
Iteration:  4537charge 0 multiplicity 1
 C         4.630547        -0.978316        -1.478784
 C         3.426423        -0.606355        -0.563641
 O         2.095335        -0.647416        -1.123695
 C         1.451457         0.125640        -0.077208
 C         0.016895         0.181563        -0.337847
 C         2.244407         1.399961         0.057374
 C         3.640332         0.772435         0.220663
 C         3.270033        -0.488698         0.918647
 O         1.892546        -0.577069         1.137543
 H         4.334643        -1.892949        -2.022903
 H         4.737869        -0.146550        -2.176246
 H         5.431038        -1.000741        -0.800224
 H        -0.644858         0.643757         0.454756
 H        -0.134635         0.802096        -1.275939
 H        -0.495358        -0.785961        -0.588247
 H         2.139199         2.075529        -0.836453
 H         1.968479         2.077180         0.868551
 H         4.516129         1.442015         0.372494
 H         3.865775        -1.258626         1.601615
