19
Iteration:  1699
 C         4.545312        -1.005094        -1.486287
 C         3.493946        -0.524239        -0.586887
 O         2.357780        -0.014503        -1.220132
 C         1.518489         0.324781        -0.206724
 C         0.133262         0.638217        -0.610663
 C         2.387930         1.195365         0.663258
 C         3.648831         0.325319         0.720666
 C         2.967630        -1.048133         0.775179
 O         1.589018        -0.763775         0.749998
 H         4.743188        -2.083798        -1.463970
 H         4.110692        -0.843529        -2.507535
 H         5.469816        -0.416240        -1.445046
 H        -0.438193         0.681592         0.331954
 H         0.123269         1.619285        -1.116608
 H        -0.179233        -0.174719        -1.337218
 H         2.609391         2.231101         0.499312
 H         1.821255         1.034610         1.606316
 H         4.684583         0.628853         1.026214
 H         3.243266        -1.846010         1.378800
