19
Iteration:  2075
 C         4.623538        -0.987460        -1.355080
 C         3.461785        -0.528765        -0.614606
 O         2.288852        -0.118298        -1.296859
 C         1.530343         0.369512        -0.209497
 C         0.065348         0.634992        -0.456706
 C         2.457915         1.338182         0.608143
 C         3.663916         0.324547         0.651610
 C         2.978446        -1.012079         0.702600
 O         1.560959        -0.804046         0.729998
 H         4.382154        -1.509938        -2.272610
 H         5.322713        -0.242969        -1.643981
 H         5.174105        -1.711554        -0.756232
 H        -0.413470         0.645854         0.566970
 H        -0.334638         1.411873        -1.171041
 H        -0.292275        -0.430096        -0.850461
 H         2.785247         2.245194         0.070003
 H         2.111398         1.329920         1.657576
 H         4.738595         0.442615         0.830138
 H         3.230209        -1.835956         1.387003
