19
Iteration:  3302
 C         4.638362        -1.047598        -1.416334
 C         3.426935        -0.596078        -0.655737
 O         2.235691        -0.464985        -1.259776
 C         1.464016         0.204437        -0.113771
 C        -0.032199         0.326646        -0.312334
 C         2.285661         1.448120         0.301182
 C         3.641918         0.668441         0.329168
 C         3.190129        -0.647410         0.793369
 O         1.742552        -0.672469         1.020678
 H         5.629332        -0.585311        -1.131997
 H         4.979689        -2.077334        -1.190251
 H         4.439021        -0.876973        -2.549785
 H        -0.311256         0.614202         0.693703
 H        -0.116423         1.001699        -1.155313
 H        -0.413496        -0.637167        -0.421721
 H         2.332081         2.344625        -0.264439
 H         1.920987         1.677420         1.235846
 H         4.657039         1.085786         0.571497
 H         3.532065        -1.380772         1.604562
