19
Iteration:  2447
 C         4.587957        -1.098893        -1.398656
 C         3.462585        -0.442122        -0.589815
 O         2.268552        -0.170913        -1.263472
 C         1.428855         0.232123         0.006939
 C         0.052584         0.575499        -0.531350
 C         2.361107         1.356501         0.562245
 C         3.664131         0.546916         0.521648
 C         3.139819        -0.923161         0.750241
 O         1.660230        -0.885190         0.795881
 H         4.300883        -1.404122        -2.447227
 H         5.534285        -0.367616        -1.676872
 H         5.101783        -1.911709        -0.837913
 H        -0.670609         0.939183         0.183329
 H         0.125338         1.290210        -1.371919
 H        -0.438231        -0.284732        -0.939034
 H         2.178943         2.234808        -0.178464
 H         2.119124         1.549128         1.666585
 H         4.658357         0.973220         0.761604
 H         3.544610        -1.836359         1.143642
