19
Iteration:  1297charge 0 multiplicity 1
 C         4.639141        -0.951501        -1.530214
 C         3.487767        -0.483534        -0.612709
 O         2.303246        -0.070993        -1.259954
 C         1.518932         0.422840        -0.125900
 C         0.122638         0.566188        -0.600271
 C         2.491626         1.279181         0.644052
 C         3.624470         0.265431         0.657622
 C         2.913179        -1.067047         0.757899
 O         1.528165        -0.818618         0.850019
 H         4.423684        -0.709035        -2.562397
 H         5.489033        -0.415615        -1.262658
 H         4.755855        -2.007741        -1.314783
 H        -0.555210         0.474370         0.247119
 H        -0.025395         1.520461        -1.155634
 H        -0.121300        -0.285298        -1.195307
 H         2.735414         2.231933        -0.009619
 H         2.215460         1.548886         1.726007
 H         4.514452         0.676189         1.167147
 H         3.367969        -1.929359         1.306965
