19
Iteration:  4657
 C         4.553904        -1.117768        -1.458913
 C         3.512101        -0.431323        -0.535710
 O         2.146673        -0.546058        -1.129114
 C         1.441633         0.114544        -0.064842
 C        -0.012531         0.131205        -0.390203
 C         2.251314         1.431965         0.067525
 C         3.668939         0.805271         0.269264
 C         3.313684        -0.535660         0.858807
 O         1.830334        -0.626399         1.140535
 H         5.117712        -2.019858        -1.072782
 H         3.907900        -1.485195        -2.263041
 H         5.183247        -0.298366        -1.818486
 H        -0.638669         0.530785         0.436662
 H        -0.154971         0.854525        -1.210932
 H        -0.526429        -0.870859        -0.592813
 H         2.167842         1.987217        -0.810605
 H         1.879139         2.087383         0.782113
 H         4.512282         1.405865         0.468031
 H         3.859530        -0.966319         1.637658
