19
Iteration:  4927charge 0 multiplicity 1
 C         4.547483        -1.272477        -1.428404
 C         3.496448        -0.445992        -0.634262
 O         2.114409        -0.425949        -1.234766
 C         1.482731         0.200789        -0.066688
 C         0.075983        -0.066470        -0.330188
 C         2.198291         1.516850         0.189991
 C         3.628906         0.805370         0.239945
 C         3.278090        -0.511627         0.900843
 O         1.851516        -0.503745         1.064363
 H         5.306122        -1.606193        -0.740169
 H         3.844611        -2.094028        -1.563872
 H         4.968990        -0.872029        -2.263633
 H        -0.667290         0.333857         0.282650
 H        -0.144453         0.183291        -1.304494
 H        -0.106927        -1.135729        -0.380583
 H         2.234019         2.337818        -0.607913
 H         1.864693         1.700628         1.301837
 H         4.503884         1.473246         0.449600
 H         3.931445        -0.902074         1.775369
