19
Iteration:   842
 C         4.613651        -1.007763        -1.475336
 C         3.503129        -0.510550        -0.559930
 O         2.195951        -0.297973        -1.176445
 C         1.483884         0.220884        -0.144202
 C        -0.020319         0.279859        -0.442729
 C         2.431596         1.405058         0.344987
 C         3.635093         0.606567         0.391682
 C         3.068917        -0.806771         0.897520
 O         1.721921        -0.712528         0.922178
 H         4.288658        -0.989876        -2.530543
 H         5.428532        -0.343401        -1.559998
 H         5.080556        -1.978544        -1.177726
 H        -0.490078         0.796275         0.408552
 H        -0.107136         1.070084        -1.194164
 H        -0.441820        -0.762073        -0.738119
 H         2.480094         2.309919        -0.290900
 H         2.133766         1.703998         1.484093
 H         4.600505         0.932471         0.648971
 H         3.429200        -1.570771         1.552564
