19
Iteration:  4252
 C         4.508015        -1.053160        -1.445117
 C         3.499116        -0.523142        -0.603907
 O         2.169808        -0.535547        -1.167279
 C         1.497143         0.159477        -0.162846
 C        -0.022534         0.135284        -0.329790
 C         2.330195         1.418724         0.130202
 C         3.642774         0.748036         0.219118
 C         3.273750        -0.575526         0.945268
 O         1.789754        -0.549721         1.098139
 H         5.517622        -1.089185        -0.951451
 H         4.478782        -2.168815        -1.748008
 H         4.506635        -0.422318        -2.319350
 H        -0.535159         0.535212         0.545570
 H        -0.366731         0.674817        -1.224496
 H        -0.340273        -0.889591        -0.549509
 H         2.158050         2.365098        -0.338949
 H         1.860601         1.638535         1.199880
 H         4.444904         1.418878         0.450296
 H         3.867042        -1.166378         1.687175
