19
Iteration:  4082
 C         4.562401        -1.017419        -1.500925
 C         3.521543        -0.605781        -0.562997
 O         2.205972        -0.515524        -1.113744
 C         1.474406         0.159834        -0.122589
 C         0.004749         0.249968        -0.419798
 C         2.270501         1.430312         0.171700
 C         3.567029         0.709209         0.315249
 C         3.256015        -0.651762         0.935905
 O         1.792755        -0.615077         1.037769
 H         4.022221        -1.135372        -2.435311
 H         5.311443        -0.366304        -1.603834
 H         5.083876        -1.920553        -1.213806
 H        -0.329109         0.767476         0.540295
 H        -0.167479         0.974154        -1.292293
 H        -0.499176        -0.717422        -0.685027
 H         2.263103         2.361786        -0.549839
 H         1.953880         1.808716         1.150184
 H         4.390736         1.346045         0.455481
 H         3.796057        -1.081663         1.735765
