19
Iteration:   279
 C         4.569849        -1.108302        -1.370510
 C         3.471748        -0.450504        -0.594925
 O         2.135851        -0.549394        -1.102884
 C         1.476586         0.118776        -0.074407
 C        -0.032122         0.001000        -0.283095
 C         2.224016         1.498231        -0.006372
 C         3.568504         0.836910         0.136953
 C         3.314938        -0.526083         0.881485
 O         1.907519        -0.551446         1.128512
 H         5.604390        -0.933905        -0.955407
 H         4.473880        -2.221937        -1.444430
 H         4.626883        -0.699124        -2.412320
 H        -0.581103         0.533631         0.510228
 H        -0.345967         0.162486        -1.318153
 H        -0.247456        -1.086019        -0.187709
 H         2.122227         2.019015        -0.953524
 H         1.792555         2.238633         0.769818
 H         4.471388         1.446183         0.352688
 H         3.952334        -1.034479         1.645953
