19
Iteration:  3133
 C         4.551574        -1.014998        -1.461291
 C         3.505489        -0.483144        -0.593194
 O         2.167911        -0.323354        -1.207711
 C         1.498568         0.200185        -0.171799
 C         0.014286         0.396919        -0.476786
 C         2.354294         1.424933         0.292033
 C         3.645082         0.631273         0.424408
 C         3.144710        -0.771183         0.883262
 O         1.742352        -0.823607         1.084144
 H         4.291068        -0.937103        -2.522491
 H         5.540292        -0.451162        -1.549512
 H         4.806515        -2.092755        -1.356650
 H        -0.494730         0.552396         0.467268
 H        -0.040002         0.923223        -1.385753
 H        -0.387616        -0.576841        -0.807758
 H         2.337346         2.236415        -0.478557
 H         2.056227         1.850370         1.318498
 H         4.713577         0.950592         0.657509
 H         3.723617        -1.464873         1.560172
