19
Iteration:  1733
 C         4.676301        -1.019598        -1.499112
 C         3.465257        -0.480374        -0.558973
 O         2.304668        -0.003099        -1.133496
 C         1.539055         0.345102        -0.089754
 C         0.097349         0.616134        -0.461736
 C         2.524299         1.350397         0.504821
 C         3.593099         0.311303         0.819411
 C         2.930751        -1.060166         0.705011
 O         1.502864        -0.912134         0.575096
 H         4.759752        -2.163406        -1.539874
 H         4.560396        -0.700581        -2.553367
 H         5.688932        -0.598392        -1.219662
 H        -0.607699         0.642161         0.407651
 H        -0.076985         1.604212        -1.066903
 H        -0.248862        -0.233970        -1.093875
 H         2.791298         2.047405        -0.204818
 H         2.131748         1.886868         1.358794
 H         4.602899         0.530247         1.182927
 H         3.239587        -1.875296         1.301577
