19
Iteration:  4941
 C         4.481459        -1.302317        -1.382206
 C         3.497851        -0.470975        -0.635278
 O         2.247242        -0.420983        -1.134925
 C         1.455310         0.194970        -0.101616
 C        -0.023846        -0.060084        -0.401634
 C         2.218361         1.555325         0.195253
 C         3.579306         0.858889         0.218814
 C         3.259530        -0.520900         0.814339
 O         1.896063        -0.552493         1.127181
 H         5.478515        -1.238848        -0.908628
 H         4.209194        -2.280701        -1.639945
 H         4.672463        -0.778169        -2.366686
 H        -0.542570         0.533738         0.351484
 H        -0.246927         0.297871        -1.418530
 H        -0.169440        -1.109844        -0.277455
 H         2.003913         2.306923        -0.535749
 H         2.024225         1.969546         1.187687
 H         4.478147         1.245478         0.511227
 H         3.871341        -1.171425         1.412504
