19
Iteration:   897
 C         4.513381        -1.134409        -1.360449
 C         3.517473        -0.370895        -0.602427
 O         2.294792        -0.178835        -1.233621
 C         1.464148         0.192679        -0.035526
 C         0.009476         0.415740        -0.446498
 C         2.330149         1.398251         0.373192
 C         3.649748         0.640235         0.432914
 C         3.203559        -0.788636         0.798834
 O         1.681943        -0.924355         0.856655
 H         4.523917        -2.193477        -1.148758
 H         4.331931        -1.003025        -2.357454
 H         5.525767        -0.762508        -1.276857
 H        -0.667191         0.661713         0.354663
 H        -0.142467         1.088956        -1.315464
 H        -0.484919        -0.496209        -0.782464
 H         2.351118         2.114499        -0.458468
 H         1.998001         1.858879         1.406566
 H         4.654857         0.898198         0.872651
 H         3.710774        -1.501908         1.491819
