19
Iteration:  2212
 C         4.654346        -1.061334        -1.390622
 C         3.518928        -0.512879        -0.577527
 O         2.255833        -0.098505        -1.283667
 C         1.485908         0.267107        -0.127437
 C         0.112159         0.705636        -0.372769
 C         2.350369         1.376901         0.493619
 C         3.645074         0.502402         0.659298
 C         3.052014        -1.032711         0.761441
 O         1.551593        -0.986692         0.662900
 H         5.335766        -0.221867        -1.684522
 H         5.346204        -1.611468        -0.815246
 H         4.165474        -1.551363        -2.232911
 H        -0.395373         0.936217         0.552116
 H         0.278601         1.530911        -1.082305
 H        -0.364701        -0.105134        -0.881993
 H         2.385958         2.094769        -0.254290
 H         1.968372         1.771274         1.362678
 H         4.670074         0.687499         0.986417
 H         3.539549        -1.866280         1.298667
