19
Iteration:  3694
 C         4.563935        -1.188341        -1.443165
 C         3.467881        -0.524153        -0.620020
 O         2.168445        -0.375219        -1.250860
 C         1.489930         0.231875        -0.167353
 C        -0.009848         0.144376        -0.395991
 C         2.268415         1.431343         0.325252
 C         3.687601         0.754603         0.325198
 C         3.184754        -0.638218         0.911346
 O         1.822732        -0.591845         1.042714
 H         5.112559        -2.011710        -1.038744
 H         4.227320        -1.444255        -2.425861
 H         5.399588        -0.664761        -1.693966
 H        -0.432142         0.528772         0.569568
 H        -0.234515         0.766738        -1.357488
 H        -0.303344        -0.965127        -0.451766
 H         2.184639         2.328879        -0.350914
 H         1.752565         1.589194         1.352529
 H         4.634456         1.237873         0.502713
 H         3.651658        -1.175403         1.678841
