19
Iteration:  4805
 C         4.515076        -1.163765        -1.445381
 C         3.494514        -0.424917        -0.540135
 O         2.228212        -0.449687        -1.197602
 C         1.453815         0.197945        -0.081540
 C        -0.035711         0.050930        -0.343554
 C         2.275839         1.471428         0.128032
 C         3.621266         0.814854         0.244430
 C         3.272998        -0.598419         0.906185
 O         1.874057        -0.636502         1.096840
 H         5.533219        -0.821435        -1.300573
 H         4.291074        -2.238002        -1.293278
 H         4.252600        -1.009047        -2.457408
 H        -0.711250         0.437885         0.427882
 H        -0.383096         0.566995        -1.243331
 H        -0.326190        -0.978089        -0.475959
 H         2.217376         1.985013        -0.947852
 H         1.877659         2.145935         1.003066
 H         4.477480         1.383488         0.413292
 H         3.654341        -1.019006         1.755618
