19
Iteration:   355charge 0 multiplicity 1
 C         4.591884        -1.059950        -1.391295
 C         3.503125        -0.517076        -0.585268
 O         2.126724        -0.471422        -1.198212
 C         1.422409         0.181083        -0.018398
 C        -0.002448        -0.029038        -0.254500
 C         2.271882         1.440234        -0.002059
 C         3.604222         0.760599         0.173094
 C         3.297117        -0.561749         0.931923
 O         1.837367        -0.525934         1.087633
 H         4.860337        -0.376327        -2.211576
 H         5.455695        -1.071286        -0.717328
 H         4.486776        -2.081248        -1.747129
 H        -0.599699         0.320020         0.634601
 H        -0.410663         0.414611        -1.162005
 H        -0.335309        -1.099970        -0.283035
 H         2.145216         1.908056        -0.963954
 H         1.995323         2.302141         0.732052
 H         4.509522         1.371085         0.173891
 H         3.892241        -1.047243         1.755048
