19
Iteration:  2034
 C         4.646102        -1.060275        -1.395897
 C         3.470664        -0.481814        -0.608472
 O         2.320299        -0.012387        -1.261777
 C         1.493189         0.319200        -0.128502
 C         0.082816         0.697080        -0.459053
 C         2.475494         1.292570         0.609608
 C         3.625410         0.359087         0.624790
 C         2.971192        -1.029680         0.764216
 O         1.556632        -0.937172         0.683159
 H         4.445987        -2.098275        -1.552380
 H         4.879895        -0.479736        -2.406455
 H         5.547544        -0.845489        -0.820875
 H        -0.597897         0.977418         0.364994
 H         0.091816         1.513604        -1.263870
 H        -0.472307        -0.205336        -0.871248
 H         2.410869         2.039424        -0.194823
 H         1.995153         1.684382         1.482380
 H         4.659897         0.474239         1.010158
 H         3.508304        -1.773774         1.300140
