19
Iteration:  1288charge 0 multiplicity 1
 C         4.629208        -0.933653        -1.477857
 C         3.459720        -0.531789        -0.590310
 O         2.259092        -0.016793        -1.245401
 C         1.527363         0.339898        -0.104781
 C         0.077784         0.514719        -0.621955
 C         2.580875         1.307690         0.598497
 C         3.623546         0.291239         0.754185
 C         2.937015        -1.022721         0.728940
 O         1.541887        -0.802996         0.825073
 H         4.310617        -0.685766        -2.564192
 H         5.567142        -0.533305        -1.231742
 H         4.805740        -2.009567        -1.744781
 H        -0.627072         0.625299         0.196756
 H        -0.042977         1.416604        -1.165560
 H        -0.231491        -0.302140        -1.270783
 H         2.898505         2.174228        -0.063054
 H         2.142456         1.755749         1.506732
 H         4.624832         0.313955         1.287048
 H         3.385330        -1.970010         1.014616
