19
Iteration:  3740charge 0 multiplicity 1
 C         4.629795        -1.076522        -1.378544
 C         3.502546        -0.460458        -0.595474
 O         2.134870        -0.341654        -1.215316
 C         1.466986         0.121086        -0.078550
 C        -0.035796         0.324068        -0.258401
 C         2.313447         1.398225         0.066981
 C         3.543378         0.686121         0.413070
 C         3.240361        -0.674798         0.870647
 O         1.799957        -0.773852         0.976816
 H         5.242337        -1.839316        -0.839548
 H         4.210204        -1.382506        -2.263263
 H         5.516729        -0.475742        -1.675376
 H        -0.465845         0.803472         0.619098
 H        -0.032903         0.922257        -1.201467
 H        -0.506204        -0.664723        -0.500992
 H         2.392604         1.709067        -0.969695
 H         2.073702         2.282998         0.815498
 H         4.520873         1.339590         0.490089
 H         3.839826        -1.414537         1.547608
