19
Iteration:    35
 C         4.430512        -1.095388        -1.517703
 C         3.567158        -0.474055        -0.484506
 O         2.231088        -0.590639        -1.044141
 C         1.423889         0.112743        -0.071806
 C        -0.080147        -0.175685        -0.153141
 C         2.230030         1.525827        -0.259622
 C         3.521733         0.891014         0.194661
 C         3.329344        -0.399708         0.923016
 O         1.985440        -0.512197         1.145107
 H         5.280028        -0.455653        -1.774984
 H         4.827905        -2.091416        -1.222334
 H         3.836599        -1.236439        -2.439565
 H        -0.508448         0.146970         0.807403
 H        -0.584715         0.333942        -0.924894
 H        -0.246503        -1.257796        -0.221714
 H         2.296955         1.785954        -1.331245
 H         1.906889         2.311880         0.377029
 H         4.366192         1.476734         0.570491
 H         3.983271        -0.733403         1.664946
