19
Iteration:  2940
 C         4.621274        -1.091325        -1.420339
 C         3.504396        -0.432827        -0.633714
 O         2.221679        -0.209096        -1.303699
 C         1.467021         0.252831        -0.031186
 C         0.048193         0.367265        -0.434461
 C         2.415346         1.375658         0.494457
 C         3.661851         0.581145         0.490761
 C         3.076796        -0.867470         0.763670
 O         1.655082        -0.731851         0.868641
 H         5.615976        -1.136559        -0.940472
 H         4.439892        -2.148400        -1.680419
 H         4.647714        -0.709163        -2.415491
 H        -0.597874         0.715612         0.422242
 H        -0.141147         0.911951        -1.358869
 H        -0.388127        -0.607466        -0.831029
 H         2.403694         2.230266        -0.170850
 H         2.090873         1.536293         1.496101
 H         4.517098         0.961859         0.966981
 H         3.526256        -1.666444         1.396183
