19
Iteration:  2137charge 0 multiplicity 1
 C         4.477839        -1.021794        -1.469145
 C         3.472805        -0.472029        -0.556443
 O         2.265905        -0.091147        -1.290962
 C         1.468091         0.219217        -0.063074
 C         0.137677         0.658154        -0.650976
 C         2.449994         1.318178         0.640020
 C         3.690413         0.406666         0.724737
 C         3.029885        -0.930667         0.788423
 O         1.646837        -0.921868         0.756449
 H         4.095646        -0.870226        -2.579938
 H         5.415824        -0.476673        -1.373544
 H         4.547982        -2.159196        -1.275783
 H        -0.630771         0.927929         0.047847
 H         0.354832         1.426743        -1.272929
 H        -0.144122        -0.200479        -1.204428
 H         2.564454         2.242251         0.058307
 H         2.022893         1.687775         1.640054
 H         4.693875         0.663855         1.032518
 H         3.434955        -1.920086         1.194181
