19
Iteration:   215
 C         4.611099        -1.191144        -1.401102
 C         3.564466        -0.491134        -0.621215
 O         2.233777        -0.754465        -1.155413
 C         1.460703         0.039583        -0.120721
 C        -0.062718         0.085576        -0.214208
 C         2.155451         1.441399         0.096573
 C         3.546248         0.960526         0.088799
 C         3.314914        -0.349067         0.939647
 O         1.883019        -0.490959         1.060863
 H         4.641628        -2.318449        -1.125934
 H         4.237531        -0.971626        -2.453143
 H         5.584734        -0.633682        -1.252456
 H        -0.438939         0.467281         0.757308
 H        -0.512253         0.712219        -0.987175
 H        -0.579097        -0.908219        -0.311915
 H         1.880216         2.169386        -0.632655
 H         1.624627         1.797286         1.046099
 H         4.418094         1.640577         0.161829
 H         3.887040        -0.733250         1.775665
