19
Iteration:  2426charge 0 multiplicity 1
 C         4.490488        -0.974986        -1.497530
 C         3.499591        -0.421991        -0.564196
 O         2.202606        -0.174279        -1.202460
 C         1.534765         0.244668        -0.103776
 C         0.191102         0.520288        -0.592889
 C         2.401837         1.391477         0.514725
 C         3.603740         0.464786         0.613993
 C         3.048279        -0.973107         0.747855
 O         1.676336        -0.891740         0.904234
 H         4.049932        -1.686094        -2.254047
 H         5.196908        -0.150122        -2.062820
 H         5.240394        -1.534317        -0.874643
 H        -0.507739         0.822805         0.145771
 H         0.207838         1.203063        -1.451880
 H        -0.309575        -0.232150        -1.115296
 H         2.524022         2.143940        -0.378989
 H         1.913220         1.736330         1.489775
 H         4.578269         0.654534         1.103059
 H         3.485286        -1.669502         1.434212
