19
Iteration:   994
 C         4.667217        -1.036584        -1.541512
 C         3.544246        -0.457569        -0.548919
 O         2.205633        -0.356538        -1.263536
 C         1.446946         0.178027        -0.136512
 C         0.076649         0.612286        -0.560669
 C         2.292407         1.376098         0.543167
 C         3.620050         0.579106         0.576708
 C         3.131645        -0.870532         0.821181
 O         1.679436        -0.847966         0.931681
 H         5.404263        -0.323405        -1.986069
 H         5.231555        -1.883123        -1.205994
 H         4.141792        -1.504289        -2.446964
 H        -0.476214         0.986719         0.331361
 H         0.220124         1.515466        -1.288220
 H        -0.621694        -0.058604        -1.087029
 H         2.192123         2.229195        -0.079968
 H         1.733738         1.548856         1.517806
 H         4.642953         1.014403         0.924342
 H         3.701121        -1.583979         1.469501
