19
Iteration:  1897
 C         4.624256        -1.021748        -1.375490
 C         3.508634        -0.390218        -0.583421
 O         2.246032        -0.099036        -1.271020
 C         1.477306         0.172433        -0.185891
 C         0.136342         0.735925        -0.402160
 C         2.380217         1.347822         0.516499
 C         3.607899         0.436455         0.724424
 C         3.013117        -1.002376         0.686761
 O         1.611662        -1.019921         0.671682
 H         4.240738        -1.385540        -2.348062
 H         5.485184        -0.496980        -1.491953
 H         4.883571        -1.946725        -0.850898
 H        -0.283422         0.945006         0.588624
 H         0.420817         1.745817        -0.858083
 H        -0.516469         0.119538        -1.017533
 H         2.509121         2.110811        -0.263193
 H         2.163711         2.009308         1.407348
 H         4.568238         0.508591         1.276009
 H         3.506843        -1.804638         1.244094
