19
Iteration:  2705charge 0 multiplicity 1
 C         4.603861        -0.986025        -1.612318
 C         3.565916        -0.506958        -0.554971
 O         2.259570        -0.215774        -1.221696
 C         1.509170         0.259782        -0.172797
 C         0.018738         0.475287        -0.551831
 C         2.400222         1.371842         0.494239
 C         3.654088         0.473136         0.563897
 C         3.032812        -0.934321         0.924576
 O         1.626880        -0.757794         0.915266
 H         4.322533        -0.285424        -2.458176
 H         5.573135        -0.615848        -1.367853
 H         4.474234        -2.141292        -1.569076
 H        -0.494129         0.476199         0.432082
 H        -0.060165         1.334617        -1.266032
 H        -0.164791        -0.445695        -1.166385
 H         2.622520         2.213670        -0.117126
 H         1.806961         1.571250         1.366068
 H         4.568973         0.549668         1.060351
 H         3.431305        -1.663710         1.577866
