19
Iteration:  1623
 C         4.664234        -1.005709        -1.464068
 C         3.558088        -0.517984        -0.602484
 O         2.397400        -0.080746        -1.307120
 C         1.551413         0.355488        -0.205519
 C         0.043469         0.635151        -0.403173
 C         2.441981         1.305387         0.676690
 C         3.653745         0.266949         0.744150
 C         2.857028        -1.075119         0.717192
 O         1.491867        -0.736833         0.574926
 H         5.523477        -1.358636        -0.752112
 H         4.364155        -1.869159        -2.186162
 H         5.099131        -0.121897        -2.025910
 H        -0.358167         0.904511         0.605741
 H        -0.076256         1.449145        -1.112466
 H        -0.516823        -0.353635        -0.648704
 H         2.529841         2.275362         0.326149
 H         1.977268         1.374983         1.660368
 H         4.588222         0.130196         1.320193
 H         3.081946        -1.666363         1.630238
