19
Iteration:  2440
 C         4.585115        -1.047230        -1.384910
 C         3.460124        -0.423173        -0.600912
 O         2.249317        -0.195150        -1.233114
 C         1.446556         0.239192        -0.003193
 C         0.087036         0.555413        -0.570804
 C         2.379449         1.351204         0.540069
 C         3.641044         0.570386         0.523815
 C         3.099586        -0.987027         0.696908
 O         1.658250        -0.894775         0.836728
 H         4.026628        -1.374833        -2.272038
 H         5.266654        -0.331043        -1.837245
 H         5.055293        -1.875774        -0.894059
 H        -0.611924         1.044077         0.117629
 H         0.387278         1.384792        -1.231681
 H        -0.223404        -0.443014        -0.910546
 H         2.452942         2.249108        -0.082030
 H         2.159530         1.763782         1.511569
 H         4.543455         0.967363         0.992144
 H         3.712452        -1.807414         1.212979
