19
Iteration:   943charge 0 multiplicity 1
 C         4.649829        -0.996616        -1.467200
 C         3.494270        -0.512875        -0.576479
 O         2.287749        -0.250046        -1.265775
 C         1.462849         0.328088        -0.160715
 C         0.003806         0.359815        -0.402487
 C         2.436685         1.418331         0.410269
 C         3.627734         0.497263         0.520758
 C         3.022323        -0.869923         0.818793
 O         1.633943        -0.751341         0.890918
 H         5.595227        -1.142553        -0.925385
 H         4.491239        -2.002766        -1.854225
 H         4.858775        -0.412931        -2.324202
 H        -0.577122         0.441847         0.500723
 H        -0.290526         1.035934        -1.200374
 H        -0.278851        -0.592419        -0.770775
 H         2.585108         2.280045        -0.299947
 H         2.189840         1.736752         1.488944
 H         4.554041         0.933457         0.925022
 H         3.433828        -1.692457         1.416750
