19
Iteration:  4572charge 0 multiplicity 1
 C         4.587428        -1.134235        -1.422984
 C         3.517572        -0.525045        -0.607139
 O         2.212078        -0.518212        -1.229769
 C         1.446559         0.162424        -0.076749
 C        -0.033654         0.166257        -0.219104
 C         2.213655         1.418173         0.071300
 C         3.588697         0.838052         0.252200
 C         3.213278        -0.512209         0.928922
 O         1.853856        -0.637469         1.049907
 H         4.777318        -2.189381        -1.200001
 H         4.426737        -1.020249        -2.443510
 H         5.640120        -0.750945        -1.308553
 H        -0.488623         0.714300         0.608812
 H        -0.266273         0.685925        -1.146494
 H        -0.323749        -0.916989        -0.248326
 H         2.112506         2.014263        -0.953865
 H         1.977141         1.942162         1.005498
 H         4.447198         1.382985         0.580690
 H         3.923365        -1.084145         1.546822
