19
Iteration:  4640
 C         4.564794        -1.230815        -1.480379
 C         3.500019        -0.507211        -0.619328
 O         2.216670        -0.465003        -1.167020
 C         1.450742         0.177267        -0.138317
 C        -0.014930         0.101438        -0.386541
 C         2.210911         1.498380         0.176654
 C         3.518580         0.811233         0.208892
 C         3.257657        -0.526958         0.964285
 O         1.923754        -0.596255         1.150115
 H         4.967873        -1.909052        -0.723369
 H         4.050734        -1.538129        -2.421932
 H         5.472745        -0.589829        -1.766931
 H        -0.632602         0.453757         0.428932
 H        -0.384733         0.614624        -1.277362
 H        -0.286059        -0.957694        -0.464768
 H         2.005833         2.323527        -0.701116
 H         1.941048         1.771012         1.269069
 H         4.510040         1.320827         0.351286
 H         3.943764        -1.136447         1.557865
