19
Iteration:  1268
 C         4.509467        -0.908949        -1.474789
 C         3.460637        -0.503741        -0.537270
 O         2.355314        -0.049332        -1.252932
 C         1.480778         0.346564        -0.104701
 C         0.065005         0.537487        -0.554035
 C         2.555889         1.401016         0.574618
 C         3.655573         0.295122         0.775162
 C         2.964612        -1.113918         0.781476
 O         1.581924        -0.874702         0.666648
 H         4.593371        -0.247888        -2.442407
 H         5.430415        -0.891778        -0.820314
 H         4.311549        -1.955015        -1.889915
 H        -0.667074         0.739990         0.244153
 H         0.040684         1.319987        -1.257021
 H        -0.355145        -0.411617        -0.998622
 H         2.767377         2.025836        -0.226265
 H         2.352306         2.012838         1.388677
 H         4.650884         0.697708         1.096926
 H         3.256368        -1.901287         1.433760
