19
Iteration:  3685charge 0 multiplicity 1
 C         4.541939        -1.205396        -1.468691
 C         3.449776        -0.499971        -0.618180
 O         2.183412        -0.382212        -1.240158
 C         1.485941         0.197143        -0.122018
 C        -0.004659         0.152684        -0.433089
 C         2.282136         1.482356         0.295831
 C         3.649019         0.725118         0.349925
 C         3.261163        -0.605301         0.871493
 O         1.816109        -0.639973         1.088101
 H         4.873653        -2.048076        -0.843107
 H         4.149862        -1.505082        -2.379105
 H         5.286744        -0.409756        -1.593325
 H        -0.606178         0.655119         0.296575
 H        -0.252793         0.731550        -1.354182
 H        -0.289248        -0.851588        -0.746836
 H         2.015305         2.303271        -0.350264
 H         2.024549         1.779123         1.394582
 H         4.642065         1.214050         0.617923
 H         3.865661        -1.222272         1.567263
