19
Iteration:  3834
 C         4.505225        -1.197615        -1.491555
 C         3.535535        -0.403960        -0.546716
 O         2.264308        -0.283713        -1.203842
 C         1.510580         0.226052        -0.148667
 C        -0.025582         0.195456        -0.344702
 C         2.321654         1.469662         0.251905
 C         3.602268         0.690685         0.470353
 C         3.153054        -0.682669         0.892945
 O         1.788733        -0.753136         0.901460
 H         5.461323        -0.695241        -1.381168
 H         4.267844        -2.273324        -1.112432
 H         4.321643        -1.166338        -2.557722
 H        -0.597842         0.492930         0.526880
 H        -0.300830         0.760727        -1.284083
 H        -0.306042        -0.878037        -0.461157
 H         2.328008         2.074122        -0.651292
 H         1.962583         2.006257         1.103875
 H         4.631423         1.205868         0.699920
 H         3.837697        -1.255301         1.630811
