19
Iteration:  4581charge 0 multiplicity 1
 C         4.617058        -1.206322        -1.381962
 C         3.493318        -0.469810        -0.563625
 O         2.184499        -0.407987        -1.220612
 C         1.466601         0.093351        -0.056380
 C        -0.011154         0.129153        -0.218541
 C         2.241472         1.443973         0.054675
 C         3.561366         0.817720         0.295793
 C         3.258720        -0.480581         0.847433
 O         1.847568        -0.656541         1.029099
 H         4.738196        -2.312963        -1.231845
 H         4.234325        -1.246349        -2.428636
 H         5.525725        -0.594522        -1.347732
 H        -0.433767         0.687791         0.674697
 H        -0.276033         0.562248        -1.218869
 H        -0.432729        -0.940544        -0.262431
 H         2.120800         2.002894        -0.935935
 H         1.776692         2.065209         0.809019
 H         4.522752         1.298518         0.378138
 H         3.869072        -1.167242         1.582513
