19
Iteration:  2495charge 0 multiplicity 1
 C         4.588343        -1.053652        -1.403968
 C         3.462254        -0.435213        -0.574443
 O         2.359443        -0.152954        -1.249506
 C         1.469259         0.264092        -0.157594
 C         0.001342         0.436984        -0.296608
 C         2.387048         1.435693         0.431027
 C         3.692315         0.481881         0.627257
 C         3.028748        -0.946280         0.768200
 O         1.637265        -0.819665         0.674273
 H         4.500491        -0.989570        -2.480791
 H         5.647915        -0.605046        -1.304149
 H         4.781954        -2.078869        -1.060758
 H        -0.442504         0.638782         0.684505
 H        -0.242124         1.185548        -1.035989
 H        -0.598046        -0.429698        -0.704048
 H         2.689730         1.962116        -0.442791
 H         1.887818         2.005784         1.186287
 H         4.647001         0.776895         0.989562
 H         3.311081        -1.854136         1.315224
