19
Iteration:  2598charge 0 multiplicity 1
 C         4.598648        -1.050116        -1.418428
 C         3.513322        -0.448223        -0.568443
 O         2.315035        -0.181509        -1.348263
 C         1.459931         0.275321        -0.084243
 C         0.010412         0.388634        -0.380987
 C         2.414353         1.391068         0.415501
 C         3.651438         0.506344         0.669853
 C         3.061210        -0.876443         0.753098
 O         1.671226        -0.808989         0.805013
 H         5.349616        -0.389123        -1.889679
 H         5.000064        -1.873075        -0.894560
 H         4.125659        -1.348389        -2.360733
 H        -0.664721         0.842095         0.413729
 H        -0.311736         1.098878        -1.264320
 H        -0.480717        -0.620703        -0.606512
 H         2.333396         2.150435        -0.338900
 H         2.012723         1.918565         1.275246
 H         4.566392         0.843666         1.116359
 H         3.465121        -1.763441         1.278352
