19
Iteration:    92
 C         4.640862        -1.120912        -1.286751
 C         3.473239        -0.390108        -0.677753
 O         2.049760        -0.610140        -1.028708
 C         1.382270         0.077875         0.049934
 C        -0.141011         0.052645        -0.246886
 C         2.089944         1.415074        -0.090112
 C         3.564320         0.966588         0.018950
 C         3.441591        -0.419252         0.871106
 O         2.112820        -0.676516         1.153519
 H         5.022853        -0.456939        -2.125291
 H         5.505480        -1.191125        -0.508032
 H         4.283441        -2.142740        -1.698806
 H        -0.781868         0.625521         0.416068
 H        -0.165495         0.523150        -1.243423
 H        -0.461692        -0.974389        -0.370459
 H         1.954876         1.853540        -1.114200
 H         1.667127         2.165491         0.613528
 H         4.444292         1.553511        -0.309167
 H         4.203570        -1.106818         1.375986
