19
Iteration:  2523charge 0 multiplicity 1
 C         4.654679        -0.993262        -1.480521
 C         3.475856        -0.527103        -0.571325
 O         2.219042        -0.163054        -1.288089
 C         1.478078         0.282904        -0.123219
 C         0.090622         0.526185        -0.475036
 C         2.391402         1.374219         0.463552
 C         3.657647         0.482356         0.542076
 C         3.032848        -0.909445         0.807160
 O         1.642159        -0.896049         0.949690
 H         4.437154        -0.616760        -2.507312
 H         5.638231        -0.630761        -1.125760
 H         4.760874        -2.068147        -1.690221
 H        -0.672383         0.581454         0.284388
 H        -0.013171         1.262606        -1.298935
 H        -0.225991        -0.287326        -1.106181
 H         2.570812         2.252914        -0.280117
 H         1.935624         1.748991         1.436218
 H         4.552570         0.850144         1.062671
 H         3.541429        -1.732312         1.367753
