19
Iteration:  2625
 C         4.703228        -1.100532        -1.334204
 C         3.500041        -0.502919        -0.600744
 O         2.223971        -0.123787        -1.335711
 C         1.480524         0.334240        -0.163663
 C         0.022461         0.359405        -0.334602
 C         2.396956         1.380517         0.500404
 C         3.598723         0.496463         0.462973
 C         3.049864        -0.895451         0.770522
 O         1.683057        -0.775293         0.750655
 H         5.450181        -0.346747        -1.580423
 H         5.141470        -1.915128        -0.661320
 H         4.280009        -1.506273        -2.294843
 H        -0.445192         0.884991         0.439160
 H        -0.209936         1.035565        -1.054785
 H        -0.427055        -0.615003        -0.367962
 H         2.230792         2.449821         0.098327
 H         2.032217         1.516490         1.570608
 H         4.597079         0.877951         0.801983
 H         3.497711        -1.605187         1.462617
