19
Iteration:  1974
 C         4.505113        -1.038406        -1.490253
 C         3.467641        -0.508914        -0.516278
 O         2.295905         0.038731        -1.165764
 C         1.513067         0.250700        -0.033203
 C         0.088392         0.625426        -0.673709
 C         2.531585         1.367263         0.609189
 C         3.623509         0.364605         0.694265
 C         3.025178        -1.060736         0.716922
 O         1.584561        -0.926499         0.730849
 H         4.517972        -2.139110        -1.684636
 H         4.304618        -0.587322        -2.367772
 H         5.538719        -0.889005        -1.183040
 H        -0.635395         1.022511         0.054610
 H         0.321878         1.476035        -1.320114
 H        -0.250857        -0.172572        -1.350758
 H         2.476155         2.204380        -0.110170
 H         2.055346         1.709344         1.619599
 H         4.651410         0.589481         1.021013
 H         3.557034        -1.761413         1.276950
