19
Iteration:  3462
 C         4.662914        -1.107313        -1.440266
 C         3.479491        -0.513593        -0.617922
 O         2.244258        -0.498181        -1.265746
 C         1.467125         0.177168        -0.212287
 C        -0.024815         0.355710        -0.258514
 C         2.310402         1.414533         0.252086
 C         3.558760         0.716227         0.314129
 C         3.199347        -0.680039         0.920011
 O         1.779931        -0.644888         1.004529
 H         5.396730        -1.305679        -0.693293
 H         4.285936        -2.026369        -1.970516
 H         4.959331        -0.367651        -2.092331
 H        -0.403744         0.614278         0.766495
 H        -0.433031         0.973229        -1.057913
 H        -0.600135        -0.601938        -0.323083
 H         2.191109         2.274762        -0.539141
 H         1.861912         1.724156         1.215106
 H         4.500847         1.170504         0.464358
 H         3.703188        -1.273085         1.595845
