19
Iteration:  3262charge 0 multiplicity 1
 C         4.475854        -1.084211        -1.496095
 C         3.469753        -0.504095        -0.561666
 O         2.282281        -0.356589        -1.238622
 C         1.464800         0.201073        -0.011807
 C         0.005566         0.232605        -0.389984
 C         2.380260         1.468806         0.184571
 C         3.622733         0.718801         0.475562
 C         3.181513        -0.736525         0.890261
 O         1.752673        -0.761827         0.994877
 H         5.334880        -0.417874        -1.554912
 H         4.896988        -2.038497        -1.153474
 H         4.083160        -1.097943        -2.521106
 H        -0.654129         0.788460         0.288121
 H        -0.239979         1.130879        -1.090442
 H        -0.353682        -0.816901        -0.710679
 H         2.288488         1.930866        -0.814875
 H         2.074679         2.233147         1.023317
 H         4.583758         1.166786         0.729542
 H         3.905618        -1.298744         1.300626
