19
Iteration:  2256
 C         4.559813        -0.980679        -1.511199
 C         3.443561        -0.557259        -0.559255
 O         2.245865        -0.140293        -1.257195
 C         1.525577         0.324061        -0.125017
 C         0.151909         0.566404        -0.638778
 C         2.453684         1.319938         0.650459
 C         3.653159         0.436086         0.653173
 C         3.045803        -0.982728         0.766709
 O         1.595094        -0.832426         0.839517
 H         5.555632        -0.524361        -1.275472
 H         4.795242        -1.988266        -1.365508
 H         4.123151        -0.755430        -2.501267
 H        -0.550788         0.772207         0.179933
 H        -0.018267         1.394423        -1.370551
 H        -0.283875        -0.355040        -1.043921
 H         2.626948         2.191370         0.110913
 H         2.013540         1.500852         1.568807
 H         4.607004         0.901393         0.947421
 H         3.353782        -1.836414         1.275868
