19
Iteration:   232charge 0 multiplicity 1
 C         4.693112        -1.143818        -1.370110
 C         3.507614        -0.520199        -0.573715
 O         2.189795        -0.560455        -1.129151
 C         1.439737         0.178093        -0.207904
 C         0.002206        -0.006192        -0.097496
 C         2.120277         1.477889        -0.075836
 C         3.541270         0.825677         0.098293
 C         3.244466        -0.457872         0.906447
 O         1.862617        -0.536512         1.106541
 H         5.051187        -1.990874        -0.871544
 H         4.379544        -1.493500        -2.326693
 H         5.537969        -0.477251        -1.479827
 H        -0.265924         0.429899         0.851528
 H        -0.570981         0.457155        -0.950112
 H        -0.262695        -1.051801        -0.149365
 H         2.017722         2.289917        -0.837146
 H         2.012948         1.999264         0.865676
 H         4.502557         1.292290         0.123199
 H         3.857536        -0.896059         1.659724
