19
Iteration:  3817charge 0 multiplicity 1
 C         4.437120        -1.119541        -1.421855
 C         3.501155        -0.423640        -0.621446
 O         2.229704        -0.246303        -1.257666
 C         1.452018         0.176084         0.009529
 C         0.032179         0.138509        -0.438897
 C         2.349567         1.471872         0.141715
 C         3.657017         0.715766         0.504163
 C         3.222983        -0.716983         0.896603
 O         1.759240        -0.752550         1.009696
 H         5.541926        -1.063177        -1.331659
 H         4.370898        -2.153786        -1.474114
 H         4.240661        -0.778991        -2.462670
 H        -0.564952         0.459929         0.463603
 H         0.047507         0.893184        -1.239598
 H        -0.319145        -0.907917        -0.589262
 H         2.564114         1.951098        -0.828432
 H         1.993048         2.299165         0.895792
 H         4.540157         1.127268         0.910861
 H         3.621500        -1.496395         1.469254
