19
Iteration:  2434
 C         4.545147        -0.991247        -1.412162
 C         3.500156        -0.417511        -0.618394
 O         2.214119        -0.194677        -1.211094
 C         1.494000         0.249803        -0.041380
 C         0.136914         0.536763        -0.576907
 C         2.392639         1.356873         0.527363
 C         3.614416         0.555048         0.545401
 C         3.061767        -1.013587         0.693715
 O         1.667385        -0.904288         0.879531
 H         3.868814        -1.559015        -2.115549
 H         5.201258        -0.186709        -1.852889
 H         5.066926        -1.859945        -0.927382
 H        -0.538448         1.005868         0.171102
 H         0.440083         1.267627        -1.336826
 H        -0.194080        -0.409662        -1.111582
 H         2.635114         2.225279        -0.142774
 H         2.056427         1.850765         1.471237
 H         4.482752         0.837835         1.118017
 H         3.614120        -1.658595         1.297474
