19
Iteration:  4423charge 0 multiplicity 1
 C         4.565988        -1.141601        -1.360841
 C         3.494647        -0.455319        -0.637011
 O         2.115724        -0.524249        -1.170082
 C         1.463242         0.086793        -0.120421
 C         0.014679         0.116582        -0.268707
 C         2.237804         1.492358         0.073384
 C         3.597412         0.859461         0.216903
 C         3.304913        -0.549326         0.874632
 O         1.862178        -0.626561         1.092724
 H         4.188503        -2.002439        -2.004206
 H         5.136618        -0.395584        -2.021895
 H         5.349056        -1.605164        -0.603891
 H        -0.576318         0.533920         0.593264
 H        -0.175746         0.744536        -1.178943
 H        -0.385768        -0.963871        -0.245693
 H         1.974955         2.191158        -0.708347
 H         1.984927         2.071531         0.939702
 H         4.529756         1.419603         0.238088
 H         3.867484        -1.239792         1.575524
