19
Iteration:  1862
 C         4.637288        -0.991951        -1.509819
 C         3.534847        -0.538323        -0.562790
 O         2.257973        -0.067897        -1.272315
 C         1.502357         0.300979        -0.155285
 C         0.079779         0.606793        -0.571321
 C         2.442524         1.290805         0.723613
 C         3.723320         0.389715         0.603323
 C         2.946443        -0.985490         0.765605
 O         1.545453        -0.838036         0.767038
 H         4.267989        -1.063148        -2.484223
 H         5.495507        -0.350102        -1.508169
 H         4.876970        -1.982809        -1.207667
 H        -0.586494         0.817544         0.224393
 H         0.056823         1.432577        -1.299003
 H        -0.333149        -0.208239        -1.087345
 H         2.387737         2.314302         0.231111
 H         2.163335         1.161079         1.835733
 H         4.724686         0.479326         0.994671
 H         3.370876        -1.724845         1.535222
