19
Iteration:  2880
 C         4.649099        -1.045916        -1.479830
 C         3.543367        -0.438191        -0.580838
 O         2.256421        -0.211695        -1.187342
 C         1.504245         0.177762        -0.139008
 C         0.005768         0.535398        -0.419535
 C         2.361350         1.385951         0.338361
 C         3.594129         0.557383         0.562853
 C         3.067483        -0.882002         0.847732
 O         1.660441        -0.905120         0.834880
 H         5.495261        -0.392194        -1.664868
 H         4.893011        -2.021303        -1.016644
 H         4.273655        -1.124753        -2.563470
 H        -0.364572         0.741508         0.570382
 H        -0.067665         1.489695        -0.938603
 H        -0.495425        -0.334269        -0.671979
 H         2.444238         2.103342        -0.503773
 H         1.902526         1.934953         1.193493
 H         4.590515         0.957857         1.002275
 H         3.633688        -1.727748         1.351570
