19
Iteration:  3473charge 0 multiplicity 1
 C         4.614737        -1.076034        -1.388278
 C         3.501166        -0.544215        -0.596557
 O         2.183263        -0.420371        -1.232360
 C         1.476367         0.210335        -0.208905
 C        -0.047432         0.251760        -0.280719
 C         2.296213         1.450070         0.194006
 C         3.652298         0.652041         0.309156
 C         3.158328        -0.659865         0.835372
 O         1.770434        -0.660988         1.046076
 H         5.539709        -1.170834        -0.833863
 H         4.456924        -2.117634        -1.751539
 H         4.890069        -0.493491        -2.212603
 H        -0.323195         0.790946         0.667403
 H        -0.355284         0.961082        -1.061453
 H        -0.355020        -0.788985        -0.496753
 H         2.355065         2.470616        -0.385306
 H         2.093322         1.676000         1.251000
 H         4.596109         1.022242         0.625795
 H         3.701814        -1.210676         1.483526
