19
Iteration:   867charge 0 multiplicity 1
 C         4.536325        -1.163231        -1.465566
 C         3.506573        -0.442789        -0.614443
 O         2.276934        -0.336586        -1.290708
 C         1.485597         0.189934        -0.108065
 C         0.058612         0.460213        -0.445928
 C         2.242221         1.390762         0.411604
 C         3.551693         0.668062         0.545818
 C         3.231290        -0.734102         0.841642
 O         1.743958        -0.813478         0.949333
 H         4.046617        -1.803077        -2.277111
 H         4.981046        -0.381340        -2.246143
 H         5.414263        -1.605323        -0.992967
 H        -0.529240         0.830329         0.362585
 H         0.022577         1.165938        -1.299547
 H        -0.350586        -0.467605        -0.768250
 H         2.367008         2.246322        -0.266228
 H         1.754972         1.655008         1.392829
 H         4.559728         1.140101         0.847026
 H         3.735608        -1.560468         1.409237
