19
Iteration:  4379charge 0 multiplicity 1
 C         4.540568        -1.019259        -1.538022
 C         3.494933        -0.536563        -0.537417
 O         2.137169        -0.578520        -1.104070
 C         1.464393         0.133030        -0.088902
 C        -0.009663         0.151807        -0.324075
 C         2.308863         1.466207        -0.019767
 C         3.642894         0.837440         0.337419
 C         3.204524        -0.586615         0.945147
 O         1.820584        -0.637411         1.111797
 H         4.848719        -2.084450        -1.559304
 H         4.290750        -0.656093        -2.561858
 H         5.602766        -0.650839        -1.417035
 H        -0.511661         0.617322         0.556660
 H        -0.039409         0.825690        -1.194785
 H        -0.298407        -0.957902        -0.358481
 H         2.409411         1.967509        -0.996217
 H         1.790520         2.086766         0.673317
 H         4.629930         1.308203         0.415620
 H         3.874057        -1.110684         1.717439
