19
Iteration:  2864charge 0 multiplicity 1
 C         4.558668        -0.983825        -1.478780
 C         3.495962        -0.571526        -0.543575
 O         2.286465        -0.285490        -1.313783
 C         1.471343         0.300935        -0.170068
 C         0.029433         0.485369        -0.415843
 C         2.376663         1.397030         0.439859
 C         3.589458         0.527991         0.583343
 C         3.131480        -0.875840         0.855678
 O         1.694999        -0.839671         0.860393
 H         5.353270        -0.182740        -1.619706
 H         5.231149        -1.863825        -1.428318
 H         4.111273        -1.290297        -2.399297
 H        -0.705340         0.820504         0.384894
 H        -0.092532         1.401631        -1.054869
 H        -0.365985        -0.493771        -0.939000
 H         2.555823         2.252698        -0.297046
 H         2.079390         1.839890         1.434106
 H         4.490888         0.868177         0.961244
 H         3.484991        -1.470534         1.639717
