19
Iteration:   791
 C         4.596391        -1.041060        -1.438834
 C         3.519098        -0.504645        -0.582185
 O         2.236638        -0.350051        -1.232103
 C         1.485925         0.185429        -0.174703
 C        -0.043739         0.348962        -0.383958
 C         2.299967         1.412325         0.299640
 C         3.652721         0.664196         0.425597
 C         3.203511        -0.724523         0.922632
 O         1.701718        -0.781273         0.922905
 H         5.364829        -0.307200        -1.792094
 H         5.200427        -1.863819        -0.890139
 H         4.080882        -1.606333        -2.231380
 H        -0.334327         0.764330         0.560961
 H        -0.290519         1.205180        -1.035905
 H        -0.483844        -0.562408        -0.646515
 H         2.243865         2.212614        -0.407119
 H         1.907859         1.795186         1.204286
 H         4.661917         1.101318         0.558050
 H         3.750771        -1.480838         1.484866
