19
Iteration:  2906
 C         4.618478        -1.076573        -1.341438
 C         3.469508        -0.488176        -0.640083
 O         2.285449        -0.215440        -1.380394
 C         1.479465         0.232066        -0.067208
 C        -0.011004         0.493994        -0.386839
 C         2.349856         1.369881         0.454000
 C         3.582811         0.557747         0.513803
 C         3.120782        -0.860569         0.770100
 O         1.719663        -0.849326         0.828795
 H         5.574305        -0.529348        -1.248026
 H         4.712963        -2.160829        -0.985299
 H         4.508187        -1.052310        -2.394828
 H        -0.536512         0.839216         0.566960
 H        -0.020887         1.487812        -0.864584
 H        -0.441531        -0.527496        -0.569621
 H         2.394394         2.216612        -0.170558
 H         1.984510         1.759062         1.358472
 H         4.406328         1.061963         0.887123
 H         3.699494        -1.554825         1.283000
