19
Iteration:  1778charge 0 multiplicity 1
 C         4.676748        -1.063293        -1.371537
 C         3.523873        -0.476454        -0.610160
 O         2.235827        -0.135592        -1.298809
 C         1.527457         0.311078        -0.228431
 C         0.128268         0.755153        -0.430198
 C         2.307159         1.202328         0.715521
 C         3.594338         0.387416         0.576753
 C         3.029097        -0.987628         0.689416
 O         1.609210        -0.835079         0.676123
 H         4.371787        -2.018265        -1.982425
 H         5.178252        -0.375137        -2.055486
 H         5.560725        -1.309531        -0.668036
 H        -0.284858         1.076646         0.577261
 H         0.130029         1.741841        -1.095387
 H        -0.476817        -0.038360        -0.887855
 H         2.433743         2.210530         0.613554
 H         1.971171         1.094851         1.726401
 H         4.435431         0.810401         1.097962
 H         3.393046        -1.957850         1.199989
