19
Iteration:  4158charge 0 multiplicity 1
 C         4.599397        -1.189396        -1.341002
 C         3.513401        -0.417264        -0.678552
 O         2.183342        -0.371745        -1.232714
 C         1.446678         0.172472        -0.125827
 C        -0.052555         0.088647        -0.292751
 C         2.280902         1.500647         0.241071
 C         3.615925         0.715614         0.229437
 C         3.262190        -0.646118         0.849884
 O         1.758024        -0.591925         1.038349
 H         5.207773        -0.674058        -2.140692
 H         5.328582        -1.563746        -0.613199
 H         4.176267        -2.108994        -1.868651
 H        -0.418278         0.534845         0.673145
 H        -0.441478         0.602692        -1.232427
 H        -0.217969        -1.033645        -0.382793
 H         2.305100         2.365845        -0.544254
 H         2.127892         1.989112         1.195238
 H         4.580283         1.090540         0.553352
 H         3.977135        -1.222559         1.558049
