19
Iteration:   991charge 0 multiplicity 1
 C         4.651102        -1.037766        -1.544427
 C         3.555427        -0.446118        -0.564197
 O         2.200437        -0.366165        -1.264614
 C         1.444251         0.197558        -0.137821
 C         0.081398         0.640229        -0.563594
 C         2.301900         1.399935         0.538353
 C         3.598615         0.593600         0.577353
 C         3.131957        -0.900271         0.833459
 O         1.691623        -0.880888         0.947932
 H         5.460117        -0.343607        -1.886817
 H         5.313526        -1.961443        -1.177078
 H         4.104987        -1.378644        -2.506983
 H        -0.475888         0.900672         0.351568
 H         0.250731         1.436072        -1.268622
 H        -0.609100        -0.085698        -1.075480
 H         2.249647         2.213944        -0.160347
 H         1.743216         1.579296         1.373688
 H         4.506496         1.084199         0.966313
 H         3.687977        -1.618620         1.462290
