19
Iteration:  4710charge 0 multiplicity 1
 C         4.670434        -1.013891        -1.484036
 C         3.478839        -0.536341        -0.593749
 O         2.211357        -0.590509        -1.161776
 C         1.421615         0.100487        -0.106566
 C        -0.068474         0.174243        -0.234344
 C         2.285923         1.438835         0.062312
 C         3.638192         0.701378         0.224464
 C         3.201528        -0.566914         0.960381
 O         1.827909        -0.521216         1.058019
 H         5.493143        -0.929709        -0.757689
 H         4.402125        -1.982061        -1.994306
 H         4.831514        -0.300430        -2.269873
 H        -0.559069         0.659783         0.599336
 H        -0.361922         0.788946        -1.072868
 H        -0.633109        -0.761458        -0.365157
 H         2.257136         2.088274        -0.748391
 H         1.971725         1.912697         0.983601
 H         4.546011         1.230678         0.391305
 H         3.575163        -1.248747         1.634635
