19
Iteration:  3185charge 0 multiplicity 1
 C         4.585139        -1.064469        -1.384059
 C         3.502143        -0.453603        -0.648538
 O         2.209129        -0.298932        -1.226663
 C         1.481254         0.197927        -0.095008
 C        -0.025450         0.350608        -0.334683
 C         2.337456         1.397483         0.202576
 C         3.620798         0.648585         0.399119
 C         3.165842        -0.757134         0.850923
 O         1.739570        -0.816002         0.977834
 H         5.206042        -0.483565        -2.045980
 H         5.374464        -1.178813        -0.683820
 H         4.326998        -1.935402        -2.051934
 H        -0.522788         0.659414         0.653784
 H        -0.353088         1.025304        -1.279342
 H        -0.394298        -0.700542        -0.390505
 H         2.584280         2.049647        -0.671624
 H         1.981337         2.106605         1.078399
 H         4.514175         1.264798         0.731247
 H         3.776970        -1.555928         1.434305
