19
Iteration:   281charge 0 multiplicity 1
 C         4.571758        -1.117974        -1.378850
 C         3.484041        -0.467236        -0.590513
 O         2.132299        -0.549281        -1.109848
 C         1.478569         0.093828        -0.093422
 C        -0.012155         0.016594        -0.290745
 C         2.215327         1.501671         0.015903
 C         3.553721         0.856497         0.121562
 C         3.310351        -0.523811         0.890321
 O         1.903850        -0.549101         1.137523
 H         5.651748        -0.903940        -0.994978
 H         4.490648        -2.249945        -1.436022
 H         4.556593        -0.712865        -2.434903
 H        -0.575101         0.539750         0.514342
 H        -0.349900         0.152601        -1.288319
 H        -0.258463        -1.072222        -0.183086
 H         2.094576         2.075780        -0.911545
 H         1.835401         2.221839         0.790161
 H         4.457205         1.429830         0.407861
 H         3.984609        -0.970735         1.688346
