19
Iteration:   256
 C         4.605763        -1.061156        -1.292262
 C         3.409027        -0.439708        -0.638870
 O         2.115982        -0.527519        -1.241180
 C         1.387978         0.111985         0.024607
 C        -0.115507        -0.078420        -0.127495
 C         2.342978         1.466482        -0.148497
 C         3.655110         0.871299         0.280925
 C         3.298439        -0.497303         0.825803
 O         1.900638        -0.545158         1.110978
 H         5.227814        -1.509278        -0.497909
 H         4.307980        -1.904589        -1.958209
 H         5.265877        -0.361263        -1.854388
 H        -0.780931         0.326937         0.628939
 H        -0.377248         0.200342        -1.179131
 H        -0.289566        -1.151895        -0.251509
 H         2.351387         1.686677        -1.217650
 H         2.117148         2.506314         0.301451
 H         4.682632         1.221688         0.227462
 H         3.904615        -1.075065         1.480366
