19
Iteration:  1397charge 0 multiplicity 1
 C         4.666490        -0.989718        -1.495261
 C         3.504903        -0.505231        -0.582700
 O         2.318833        -0.063957        -1.257479
 C         1.524188         0.386422        -0.182732
 C         0.092987         0.570497        -0.584310
 C         2.456883         1.295996         0.785960
 C         3.585538         0.253833         0.678311
 C         2.923605        -1.111893         0.723597
 O         1.569622        -0.694171         0.713789
 H         4.687362        -2.091347        -1.585476
 H         4.319024        -0.685197        -2.390597
 H         5.553116        -0.457481        -1.247814
 H        -0.485572         0.948469         0.257059
 H        -0.035998         1.270462        -1.351047
 H        -0.315628        -0.412503        -0.942352
 H         3.057717         2.251513         0.404279
 H         2.014129         1.284551         1.839207
 H         4.547950         0.533021         1.062751
 H         3.066665        -2.054972         1.208155
