19
Iteration:  3021
 C         4.665976        -0.989485        -1.403469
 C         3.472021        -0.526303        -0.579880
 O         2.153729        -0.303063        -1.281735
 C         1.462706         0.249818        -0.104213
 C        -0.007961         0.462608        -0.393334
 C         2.363714         1.290818         0.388935
 C         3.691678         0.560281         0.427600
 C         3.152589        -0.798214         0.810142
 O         1.711830        -0.781733         0.915250
 H         4.958811        -1.993936        -1.107013
 H         4.188611        -0.975659        -2.342330
 H         5.534065        -0.405524        -1.054851
 H        -0.668414         0.750294         0.404383
 H        -0.063068         1.238033        -1.218441
 H        -0.396804        -0.437458        -0.794528
 H         2.379972         2.127411        -0.395087
 H         2.106818         1.814170         1.412152
 H         4.552835         1.121024         0.738042
 H         3.629712        -1.632590         1.147443
