19
Iteration:  1199
 C         4.620574        -1.074389        -1.381285
 C         3.443578        -0.421501        -0.616557
 O         2.241263        -0.023513        -1.256920
 C         1.481027         0.236319        -0.072671
 C         0.138944         0.600984        -0.495392
 C         2.444498         1.289220         0.599714
 C         3.640161         0.555947         0.583842
 C         3.020720        -1.021666         0.698374
 O         1.618141        -0.981587         0.704386
 H         5.543440        -0.612742        -0.861926
 H         4.512225        -2.069538        -1.019279
 H         4.616283        -0.883940        -2.495217
 H        -0.345502         0.972891         0.384836
 H         0.341786         1.471230        -1.190560
 H        -0.481466        -0.112798        -0.895022
 H         2.356295         2.229266        -0.082585
 H         1.930424         1.605142         1.583376
 H         4.564893         0.673805         1.065047
 H         3.415551        -1.924412         1.225697
