19
Iteration:  4877charge 0 multiplicity 1
 C         4.672554        -1.127818        -1.466789
 C         3.504637        -0.428728        -0.607788
 O         2.186969        -0.599170        -1.175985
 C         1.459442         0.118517        -0.079589
 C         0.007838         0.225726        -0.221641
 C         2.181312         1.413326         0.010760
 C         3.564089         0.803451         0.273435
 C         3.211637        -0.518299         0.944173
 O         1.852815        -0.641577         1.072712
 H         5.364626        -1.600547        -0.726687
 H         4.253222        -1.795784        -2.208736
 H         5.373425        -0.284996        -1.899118
 H        -0.450041         0.589600         0.749509
 H        -0.456290         0.872316        -1.036905
 H        -0.475429        -0.756088        -0.425720
 H         2.121526         1.697168        -0.977477
 H         1.867731         2.095336         0.702023
 H         4.382687         1.449146         0.223185
 H         3.849379        -1.004909         1.705669
