19
Iteration:   247charge 0 multiplicity 1
 C         4.633331        -1.100096        -1.282533
 C         3.445723        -0.484533        -0.623606
 O         2.106078        -0.504096        -1.232832
 C         1.458709         0.118402        -0.054140
 C        -0.102981        -0.079303        -0.139106
 C         2.329239         1.552029        -0.134090
 C         3.585481         0.816826         0.169885
 C         3.276681        -0.503129         0.858115
 O         1.893106        -0.551177         1.136933
 H         5.292827        -1.786778        -0.617376
 H         4.398161        -1.700559        -2.228489
 H         5.297084        -0.248706        -1.645440
 H        -0.522147         0.380982         0.774965
 H        -0.558082         0.407038        -1.001433
 H        -0.182040        -1.178337        -0.019795
 H         2.289665         1.667165        -1.193875
 H         1.798020         2.319988         0.525372
 H         4.461388         1.427091         0.465795
 H         3.906409        -0.992905         1.620547
