19
Iteration:  2191charge 0 multiplicity 1
 C         4.557685        -0.997709        -1.359511
 C         3.491684        -0.480552        -0.598956
 O         2.338083        -0.059340        -1.303088
 C         1.488287         0.255419        -0.172417
 C         0.028257         0.611560        -0.376350
 C         2.500234         1.343010         0.512648
 C         3.568920         0.393159         0.698853
 C         3.018137        -1.011467         0.712975
 O         1.580798        -0.883348         0.662383
 H         5.076146        -0.382338        -2.157955
 H         5.337996        -1.102884        -0.618964
 H         4.292546        -2.035119        -1.716006
 H        -0.293120         0.717598         0.619819
 H        -0.067036         1.379091        -1.017512
 H        -0.427296        -0.266921        -0.760694
 H         2.848574         1.956362        -0.269533
 H         2.294289         1.836488         1.425196
 H         4.514792         0.664173         1.159223
 H         3.557072        -1.794625         1.244252
