19
Iteration:  1643
 C         4.661007        -1.052505        -1.403685
 C         3.474011        -0.520284        -0.553208
 O         2.374827        -0.008688        -1.330801
 C         1.532207         0.360940        -0.247280
 C         0.111824         0.746516        -0.438252
 C         2.408663         1.249317         0.646994
 C         3.560527         0.374409         0.699096
 C         2.961108        -1.081822         0.758684
 O         1.547672        -0.924318         0.673252
 H         5.230629        -1.798197        -0.887040
 H         4.126147        -1.434517        -2.329849
 H         5.330239        -0.262335        -1.730878
 H        -0.337724         0.917628         0.551537
 H        -0.003578         1.597386        -1.069096
 H        -0.441321        -0.190370        -0.777003
 H         2.662080         2.216152         0.118027
 H         1.905154         1.550678         1.605591
 H         4.462253         0.748441         1.171044
 H         3.473660        -2.087609         0.985366
