19
Iteration:  4243charge 0 multiplicity 1
 C         4.561130        -1.026763        -1.534006
 C         3.453730        -0.552350        -0.535850
 O         2.164372        -0.550499        -1.140311
 C         1.452043         0.128449        -0.169909
 C         0.002107         0.180630        -0.368111
 C         2.291738         1.428391         0.141275
 C         3.607007         0.722528         0.261591
 C         3.203426        -0.559497         0.927802
 O         1.882038        -0.571637         1.113964
 H         5.409014        -0.589061        -0.980648
 H         4.335242        -2.131209        -1.514976
 H         4.618170        -0.658592        -2.597335
 H        -0.547092         0.570917         0.458222
 H        -0.242482         0.785756        -1.238772
 H        -0.311390        -0.785749        -0.572248
 H         2.271839         2.277561        -0.527420
 H         2.097647         1.616247         1.170134
 H         4.600475         1.152170         0.409004
 H         3.855642        -0.895921         1.825074
