19
Iteration:   598
 C         4.529513        -1.151819        -1.481718
 C         3.561979        -0.487150        -0.586814
 O         2.240138        -0.357726        -1.208446
 C         1.457465         0.190794        -0.115607
 C         0.014575         0.037355        -0.307495
 C         2.340027         1.556588         0.196678
 C         3.572461         0.768154         0.381011
 C         3.149696        -0.645136         0.902911
 O         1.780066        -0.685550         0.986736
 H         4.772870        -0.562522        -2.346945
 H         5.519350        -1.111719        -1.059766
 H         4.277430        -2.130705        -1.813826
 H        -0.540707         0.326973         0.572124
 H        -0.368247         0.753304        -1.109756
 H        -0.249095        -0.962615        -0.571199
 H         2.373437         2.253010        -0.756471
 H         2.062662         2.170237         1.032062
 H         4.444900         1.297621         0.707217
 H         3.560565        -1.316445         1.706902
