19
Iteration:   628charge 0 multiplicity 1
 C         4.586495        -1.123508        -1.395905
 C         3.506985        -0.459729        -0.586668
 O         2.181440        -0.442155        -1.273379
 C         1.429610         0.143713        -0.109141
 C        -0.019965         0.224215        -0.361431
 C         2.252813         1.383849         0.278977
 C         3.624532         0.728384         0.350246
 C         3.279197        -0.604602         0.888925
 O         1.833897        -0.634618         0.990766
 H         4.189707        -1.131162        -2.415781
 H         5.453985        -0.461799        -1.449444
 H         4.993322        -2.083161        -1.123112
 H        -0.704558         0.593262         0.420462
 H        -0.275624         0.972939        -1.199125
 H        -0.389540        -0.758673        -0.688809
 H         2.197225         2.217178        -0.405392
 H         1.892775         1.633071         1.271697
 H         4.480912         1.428805         0.470989
 H         3.687679        -1.442060         1.539524
