19
Iteration:  3714
 C         4.594414        -1.138675        -1.413974
 C         3.509445        -0.479437        -0.584219
 O         2.257070        -0.412795        -1.233339
 C         1.499537         0.226322        -0.161932
 C        -0.061460         0.170865        -0.236609
 C         2.324583         1.510697         0.192481
 C         3.608725         0.685218         0.361397
 C         3.194849        -0.678375         0.863973
 O         1.726876        -0.649895         0.953582
 H         5.057964        -1.955722        -0.867822
 H         4.065207        -1.338415        -2.438107
 H         5.432195        -0.506517        -1.637066
 H        -0.362925         0.700421         0.715794
 H        -0.462040         0.700652        -1.194519
 H        -0.324812        -0.919866        -0.370245
 H         2.198470         2.273157        -0.637811
 H         2.110143         1.885722         1.185012
 H         4.482546         1.147927         0.638178
 H         3.703167        -1.293644         1.505189
