19
Iteration:  2587charge 0 multiplicity 1
 C         4.573319        -1.043738        -1.469058
 C         3.561187        -0.423408        -0.565891
 O         2.297563        -0.138329        -1.258137
 C         1.479257         0.221652        -0.032860
 C         0.012748         0.423761        -0.433446
 C         2.344332         1.370290         0.382061
 C         3.575011         0.531100         0.578471
 C         3.092403        -0.963270         0.804673
 O         1.675326        -0.797333         0.822265
 H         5.302604        -0.262362        -1.770716
 H         5.185545        -1.839283        -1.174253
 H         3.941978        -1.523982        -2.222389
 H        -0.508828         0.892275         0.464851
 H         0.318397         1.143925        -1.325998
 H        -0.483542        -0.489432        -0.911502
 H         2.637266         1.923628        -0.488904
 H         2.028779         1.825724         1.311445
 H         4.459928         0.862745         1.105240
 H         3.572665        -1.708290         1.495282
