19
Iteration:  3100
 C         4.555354        -1.145628        -1.530692
 C         3.480025        -0.499109        -0.629505
 O         2.164232        -0.277170        -1.190705
 C         1.488695         0.217277        -0.070446
 C         0.076772         0.341924        -0.499120
 C         2.311718         1.447670         0.372240
 C         3.658679         0.681985         0.517891
 C         3.162995        -0.731740         0.810176
 O         1.743355        -0.806008         0.971699
 H         4.002236        -1.498740        -2.382689
 H         5.420217        -0.404581        -1.652556
 H         5.091658        -1.901917        -0.927115
 H        -0.577155         0.598564         0.332808
 H        -0.127795         1.035290        -1.284516
 H         0.002050        -0.703951        -0.800230
 H         2.298821         2.246054        -0.390476
 H         1.859103         1.812664         1.357799
 H         4.649116         1.118935         0.782439
 H         3.729380        -1.471266         1.501433
