19
Iteration:   541charge 0 multiplicity 1
 C         4.649285        -1.112143        -1.456976
 C         3.531551        -0.562042        -0.632053
 O         2.173089        -0.582443        -1.153429
 C         1.493653         0.177276        -0.085911
 C        -0.046715         0.273234        -0.368616
 C         2.167785         1.403195         0.307916
 C         3.573908         0.796303         0.239931
 C         3.269647        -0.485403         0.824673
 O         1.841397        -0.677033         1.014222
 H         5.527305        -0.559360        -1.134748
 H         4.644283        -2.197980        -1.315339
 H         4.486174        -0.850314        -2.454744
 H        -0.520709         0.675643         0.565620
 H        -0.044144         0.870215        -1.316241
 H        -0.338685        -0.786990        -0.599358
 H         2.008761         2.245240        -0.400253
 H         1.864943         1.706481         1.354076
 H         4.565657         1.309075         0.435600
 H         3.590704        -0.904053         1.822707
