19
Iteration:   755charge 0 multiplicity 1
 C         4.589779        -1.190376        -1.435794
 C         3.490713        -0.389675        -0.601630
 O         2.206406        -0.339665        -1.204728
 C         1.439859         0.153384        -0.105630
 C         0.045388         0.337784        -0.463362
 C         2.220323         1.407079         0.354690
 C         3.631721         0.756573         0.399480
 C         3.270699        -0.688810         0.829710
 O         1.770449        -0.787838         0.987864
 H         5.632986        -1.066512        -1.018157
 H         4.241532        -2.226971        -1.425913
 H         4.673766        -0.800154        -2.522590
 H        -0.398892         0.568388         0.495940
 H        -0.056599         1.086793        -1.213465
 H        -0.609918        -0.480332        -0.787311
 H         2.115913         2.165284        -0.439653
 H         1.794922         1.674089         1.418490
 H         4.595239         1.196801         0.529155
 H         3.804407        -1.459512         1.383963
