19
Iteration:  2037charge 0 multiplicity 1
 C         4.665993        -1.047690        -1.386960
 C         3.466733        -0.468428        -0.630384
 O         2.309801         0.016066        -1.251017
 C         1.486689         0.306561        -0.108811
 C         0.069330         0.681753        -0.458480
 C         2.474524         1.266789         0.563468
 C         3.610124         0.337162         0.635287
 C         2.988488        -1.040431         0.750677
 O         1.549809        -0.916878         0.692146
 H         4.418651        -2.126913        -1.534494
 H         4.928915        -0.476298        -2.351712
 H         5.550872        -0.903911        -0.729154
 H        -0.561613         0.977198         0.328876
 H         0.102664         1.450941        -1.214643
 H        -0.342160        -0.162671        -0.859721
 H         2.411154         2.067380        -0.200471
 H         2.143866         1.803741         1.495225
 H         4.673505         0.371038         0.927181
 H         3.453937        -1.767464         1.372678
