19
Iteration:  4270
 C         4.603300        -1.161076        -1.445562
 C         3.488066        -0.481602        -0.581791
 O         2.209784        -0.466265        -1.193408
 C         1.425646         0.160242        -0.053966
 C        -0.014406         0.093004        -0.276739
 C         2.248691         1.529611         0.147410
 C         3.619709         0.792579         0.278166
 C         3.209515        -0.588973         0.855341
 O         1.847176        -0.608427         1.041923
 H         5.401093        -1.538554        -0.779368
 H         4.068851        -1.998570        -1.860697
 H         5.027480        -0.534047        -2.232242
 H        -0.549978         0.549051         0.602681
 H        -0.418926         0.595492        -1.181124
 H        -0.321563        -1.026792        -0.463750
 H         2.224627         2.021414        -0.849514
 H         1.997302         2.255279         0.990963
 H         4.641592         1.164636         0.305702
 H         3.737811        -1.165784         1.500680
