19
Iteration:  3011charge 0 multiplicity 1
 C         4.646811        -1.013468        -1.468421
 C         3.555335        -0.552069        -0.583399
 O         2.129416        -0.309921        -1.253357
 C         1.467794         0.193613        -0.144609
 C         0.046281         0.506914        -0.448840
 C         2.333718         1.354392         0.400380
 C         3.601911         0.571138         0.476279
 C         3.123725        -0.829329         0.863684
 O         1.734532        -0.752858         0.949913
 H         5.079218        -1.982769        -1.322615
 H         4.472267        -1.072130        -2.554343
 H         5.492319        -0.250070        -1.609112
 H        -0.437709         0.717957         0.479610
 H        -0.179916         1.168814        -1.303383
 H        -0.350623        -0.408820        -0.792519
 H         2.442833         2.294672        -0.203929
 H         2.005798         1.517085         1.512264
 H         4.476940         1.079969         0.759310
 H         3.546623        -1.590008         1.428064
