19
Iteration:  2341charge 0 multiplicity 1
 C         4.699567        -1.090313        -1.339034
 C         3.515404        -0.461969        -0.718926
 O         2.263137        -0.092071        -1.225009
 C         1.446962         0.232383        -0.091970
 C        -0.034457         0.650903        -0.459322
 C         2.370416         1.317316         0.554117
 C         3.654597         0.488898         0.484725
 C         3.073717        -0.936535         0.720067
 O         1.614835        -0.944079         0.799374
 H         4.908353        -1.877034        -0.651776
 H         4.657894        -1.366893        -2.382174
 H         5.566098        -0.535251        -1.186581
 H        -0.439276         0.946828         0.530112
 H         0.154620         1.611261        -1.119426
 H        -0.515050        -0.208935        -0.980401
 H         2.401563         2.268523        -0.014072
 H         1.981807         1.594516         1.530805
 H         4.618395         0.790090         0.949682
 H         3.579051        -1.807562         1.006338
