19
Iteration:  1569
 C         4.600717        -1.017973        -1.488712
 C         3.506129        -0.462067        -0.580971
 O         2.274542        -0.089570        -1.235580
 C         1.472555         0.249948        -0.050832
 C         0.244606         0.869473        -0.647339
 C         2.379379         1.213757         0.709995
 C         3.620780         0.326093         0.738122
 C         3.008807        -1.009054         0.716236
 O         1.535294        -0.949324         0.700203
 H         5.600469        -0.536043        -1.133169
 H         4.530211        -2.169380        -1.601160
 H         4.300074        -0.703482        -2.551927
 H        -0.530556         1.204165         0.091700
 H         0.563174         1.741326        -1.213337
 H        -0.260705         0.055736        -1.320878
 H         2.520455         2.127631         0.265697
 H         2.143781         1.372447         1.766873
 H         4.545403         0.771194         1.098275
 H         3.310421        -2.040953         1.080998
