19
Iteration:  2885
 C         4.632527        -1.046253        -1.448656
 C         3.529062        -0.381216        -0.599302
 O         2.262700        -0.202499        -1.191803
 C         1.491351         0.132331        -0.137356
 C         0.037525         0.532679        -0.389648
 C         2.359708         1.374769         0.336787
 C         3.617929         0.576270         0.561031
 C         3.081753        -0.890421         0.824351
 O         1.649968        -0.888858         0.831562
 H         5.615528        -0.514757        -1.568848
 H         4.978218        -2.083585        -1.200119
 H         4.364363        -1.264650        -2.449713
 H        -0.505718         0.862208         0.566536
 H        -0.055776         1.523662        -0.875949
 H        -0.536304        -0.435715        -0.704147
 H         2.328278         2.045870        -0.524837
 H         1.866832         1.910163         1.135747
 H         4.540813         0.796400         0.963030
 H         3.484641        -1.709244         1.331979
