19
Iteration:  1762charge 0 multiplicity 1
 C         4.675184        -1.034587        -1.340758
 C         3.401616        -0.458232        -0.674182
 O         2.360524        -0.063559        -1.392733
 C         1.499924         0.256501        -0.155622
 C         0.073874         0.763948        -0.437314
 C         2.409345         1.266206         0.669539
 C         3.659038         0.385368         0.669678
 C         2.994077        -1.047635         0.656844
 O         1.554460        -0.924917         0.764283
 H         4.606140        -2.043792        -1.534868
 H         4.910715        -0.505215        -2.276313
 H         5.487413        -0.923077        -0.670790
 H        -0.421464         0.891045         0.503481
 H         0.075400         1.631735        -0.998838
 H        -0.618275         0.060816        -0.922604
 H         2.512619         2.319255         0.116698
 H         1.845975         1.361237         1.687493
 H         4.726352         0.549858         0.951760
 H         3.357748        -1.859473         1.203523
