19
Iteration:   517charge 0 multiplicity 1
 C         4.610595        -1.045021        -1.391001
 C         3.513814        -0.467131        -0.581340
 O         2.182341        -0.501504        -1.212757
 C         1.489130         0.090550        -0.099878
 C        -0.074657         0.212275        -0.329212
 C         2.212219         1.457594         0.077060
 C         3.607424         0.778632         0.265067
 C         3.290567        -0.581134         0.880129
 O         1.812759        -0.709903         1.120966
 H         5.476003        -1.249849        -0.772618
 H         4.147937        -1.941643        -1.855365
 H         4.956110        -0.345525        -2.173017
 H        -0.286587         0.821505         0.603205
 H        -0.033339         0.777340        -1.253967
 H        -0.660967        -0.776490        -0.368106
 H         2.169221         2.180272        -0.673985
 H         1.808593         1.873256         1.062340
 H         4.563768         1.229330         0.315226
 H         3.832377        -1.291122         1.417958
