19
Iteration:  4227
 C         4.600596        -1.047259        -1.506952
 C         3.499972        -0.525407        -0.623177
 O         2.146760        -0.573906        -1.118567
 C         1.469826         0.139498        -0.020104
 C         0.004161         0.239902        -0.415355
 C         2.260869         1.482144         0.141704
 C         3.590211         0.728495         0.272408
 C         3.297683        -0.601346         0.946980
 O         1.810734        -0.649402         1.129387
 H         5.544144        -0.484571        -1.423227
 H         4.837567        -2.101995        -1.512329
 H         4.183569        -0.811406        -2.473975
 H        -0.564939         0.734359         0.427638
 H        -0.155951         0.889435        -1.312783
 H        -0.494524        -0.767265        -0.741555
 H         2.174535         1.979775        -0.863092
 H         1.788904         2.272685         0.878794
 H         4.532607         1.302090         0.386639
 H         3.839638        -1.192790         1.608487
