19
Iteration:  4864charge 0 multiplicity 1
 C         4.661638        -0.987633        -1.411989
 C         3.489725        -0.579031        -0.630611
 O         2.182608        -0.634210        -1.155879
 C         1.436083         0.051032        -0.161627
 C        -0.057995         0.243896        -0.240120
 C         2.246645         1.405607         0.022419
 C         3.568611         0.788384         0.185781
 C         3.287054        -0.448691         0.962413
 O         1.797205        -0.621029         1.111059
 H         5.364954        -1.579336        -0.793466
 H         4.423713        -1.783590        -2.140664
 H         5.160325        -0.145360        -2.012380
 H        -0.236027         0.605810         0.764193
 H        -0.219052         1.054327        -0.935604
 H        -0.634398        -0.692336        -0.430094
 H         2.272253         2.111138        -0.775591
 H         1.786826         1.883764         0.940340
 H         4.565680         1.309680         0.362398
 H         3.938008        -1.122533         1.703718
