19
Iteration:  4074
 C         4.601864        -1.007215        -1.498662
 C         3.440254        -0.509318        -0.541998
 O         2.196456        -0.522487        -1.117450
 C         1.464319         0.150234        -0.124078
 C         0.019234         0.260836        -0.395790
 C         2.299319         1.472048         0.134996
 C         3.597729         0.713478         0.304693
 C         3.195625        -0.691284         0.916621
 O         1.816718        -0.660640         1.074346
 H         4.098466        -1.176967        -2.429193
 H         5.300518        -0.197910        -1.642228
 H         5.019484        -1.922148        -1.096512
 H        -0.652621         0.609941         0.337783
 H        -0.046456         0.888953        -1.276439
 H        -0.418541        -0.724328        -0.593749
 H         2.349029         2.151958        -0.721538
 H         2.076064         1.978847         1.103983
 H         4.587823         1.152918         0.371174
 H         3.738838        -1.254044         1.773944
