19
Iteration:   674charge 0 multiplicity 1
 C         4.577287        -0.998952        -1.435655
 C         3.452164        -0.488313        -0.570503
 O         2.199229        -0.457395        -1.215631
 C         1.447432         0.102580        -0.122064
 C         0.004329         0.278279        -0.344116
 C         2.318824         1.424399         0.252976
 C         3.614008         0.753497         0.396718
 C         3.214720        -0.705020         0.884624
 O         1.812977        -0.728145         0.964097
 H         4.425462        -2.016936        -1.702867
 H         4.778035        -0.469066        -2.362508
 H         5.507091        -0.927909        -0.946696
 H        -0.497042         0.965470         0.349267
 H        -0.073383         0.946880        -1.270170
 H        -0.632871        -0.584044        -0.524523
 H         2.263762         1.967650        -0.764693
 H         1.945888         2.033761         1.040036
 H         4.550602         1.229877         0.533727
 H         3.676268        -1.334339         1.612123
