19
Iteration:  1670
 C         4.614748        -1.068678        -1.385501
 C         3.507023        -0.413364        -0.630973
 O         2.268404        -0.042707        -1.252919
 C         1.398491         0.211703         0.000669
 C         0.141622         0.744720        -0.595023
 C         2.480225         1.355063         0.681233
 C         3.545598         0.397369         0.662971
 C         3.006677        -1.031342         0.665306
 O         1.616674        -0.997288         0.677549
 H         4.883326        -2.196089        -1.047049
 H         4.050204        -1.080344        -2.320664
 H         5.602431        -0.480121        -1.496086
 H        -0.690038         1.044119         0.060015
 H         0.715994         1.616082        -1.087704
 H        -0.267635         0.078458        -1.340142
 H         2.678692         2.261101         0.146555
 H         2.234619         1.599816         1.694508
 H         4.433264         0.488963         1.286757
 H         3.538981        -1.793260         1.195691
