19
Iteration:  2274charge 0 multiplicity 1
 C         4.512341        -1.005409        -1.531526
 C         3.489835        -0.490969        -0.545077
 O         2.313096        -0.050123        -1.194064
 C         1.503773         0.275461        -0.037428
 C         0.120173         0.472389        -0.549029
 C         2.441601         1.420555         0.515577
 C         3.634045         0.345066         0.672909
 C         3.006289        -0.989798         0.801198
 O         1.599696        -0.847992         0.747058
 H         5.487079        -0.642022        -1.192890
 H         4.481065        -2.129750        -1.758017
 H         4.481950        -0.563738        -2.499791
 H        -0.782932         0.881784        -0.015061
 H         0.274476         1.343103        -1.341635
 H        -0.138465        -0.435847        -1.115105
 H         2.561332         2.225285        -0.306268
 H         2.221762         2.013449         1.457884
 H         4.556241         0.361475         1.215466
 H         3.434475        -1.763151         1.468389
