19
Iteration:  2650
 C         4.645805        -1.092414        -1.395261
 C         3.488424        -0.410013        -0.659600
 O         2.272055        -0.182557        -1.296635
 C         1.429002         0.219442        -0.078482
 C        -0.000372         0.494799        -0.463629
 C         2.386242         1.352644         0.487577
 C         3.609380         0.544515         0.533735
 C         3.137329        -0.887355         0.733398
 O         1.660127        -0.881765         0.894668
 H         5.362599        -0.228536        -1.692267
 H         5.201642        -1.569434        -0.597787
 H         4.326730        -1.840861        -2.279832
 H        -0.562712         1.022720         0.385047
 H         0.024981         1.429736        -1.109733
 H        -0.628790        -0.434026        -0.698062
 H         2.423828         2.125566        -0.249608
 H         1.976622         1.865813         1.331934
 H         4.541642         0.944507         0.926283
 H         3.748577        -1.702207         1.194555
