19
Iteration:  2903charge 0 multiplicity 1
 C         4.620965        -1.079908        -1.345725
 C         3.493512        -0.468405        -0.629656
 O         2.288015        -0.222325        -1.387986
 C         1.473174         0.215470        -0.047263
 C        -0.001435         0.490342        -0.358712
 C         2.329296         1.358349         0.432957
 C         3.595120         0.552381         0.527694
 C         3.111844        -0.857573         0.748388
 O         1.700941        -0.844870         0.826101
 H         5.511408        -0.488450        -1.286443
 H         4.652795        -2.097899        -0.888854
 H         4.422514        -0.971473        -2.445123
 H        -0.490849         0.817113         0.551220
 H         0.123622         1.447715        -0.918405
 H        -0.461371        -0.428845        -0.664883
 H         2.414520         2.171461        -0.272807
 H         2.012693         1.821942         1.363667
 H         4.517816         1.083675         0.947301
 H         3.684661        -1.565726         1.338209
