19
Iteration:  3068charge 0 multiplicity 1
 C         4.543662        -1.154922        -1.441237
 C         3.524292        -0.458442        -0.568230
 O         2.322608        -0.240960        -1.306355
 C         1.467031         0.190655        -0.131568
 C        -0.042604         0.362225        -0.323787
 C         2.309306         1.373573         0.348002
 C         3.698340         0.641253         0.529836
 C         3.149302        -0.750618         0.813297
 O         1.721709        -0.733580         0.839232
 H         4.204649        -2.055449        -2.000087
 H         4.826444        -0.340977        -2.229028
 H         5.282727        -1.576915        -0.725633
 H        -0.556771         0.461818         0.642323
 H        -0.470853         1.053232        -1.004820
 H        -0.401929        -0.655129        -0.550857
 H         2.321746         2.212708        -0.333322
 H         1.770421         1.700575         1.256102
 H         4.650654         1.123075         0.792528
 H         3.561961        -1.521570         1.580402
