19
Iteration:  4450charge 0 multiplicity 1
 C         4.556683        -1.249957        -1.290334
 C         3.512593        -0.429331        -0.689146
 O         2.162308        -0.398553        -1.198228
 C         1.420180         0.163430        -0.011299
 C        -0.098047         0.067893        -0.249626
 C         2.218085         1.452006         0.081444
 C         3.617219         0.893392         0.209261
 C         3.328184        -0.525910         0.769599
 O         1.912452        -0.680608         1.082530
 H         4.264218        -1.970953        -2.019835
 H         5.350440        -0.683922        -1.683475
 H         5.011819        -1.946382        -0.649262
 H        -0.828142         0.470986         0.490193
 H        -0.209199         0.556569        -1.232505
 H        -0.189408        -1.000059        -0.285105
 H         1.947421         2.037601        -0.844865
 H         1.973343         2.087859         0.998335
 H         4.539712         1.470005         0.374411
 H         3.970843        -0.959157         1.544288
