19
Iteration:  4706charge 0 multiplicity 1
 C         4.668167        -0.999160        -1.503441
 C         3.491954        -0.554719        -0.535916
 O         2.189580        -0.581563        -1.154494
 C         1.445260         0.061399        -0.128865
 C        -0.080231         0.183505        -0.247518
 C         2.304704         1.407421         0.059506
 C         3.641832         0.722837         0.216350
 C         3.195154        -0.577607         0.934359
 O         1.820477        -0.509363         1.065713
 H         5.534630        -1.074377        -0.816393
 H         4.430079        -1.962392        -2.044293
 H         4.851235        -0.192521        -2.237145
 H        -0.552474         0.634628         0.646416
 H        -0.381479         0.864278        -1.066973
 H        -0.606115        -0.750523        -0.296565
 H         2.141863         2.189796        -0.847251
 H         1.966902         2.050661         0.987765
 H         4.536929         1.290463         0.474001
 H         3.602625        -1.277315         1.768303
