19
Iteration:   184
 C         4.511232        -1.136046        -1.397968
 C         3.481236        -0.405452        -0.610630
 O         2.112744        -0.558390        -1.032290
 C         1.480935         0.136809         0.054196
 C         0.054569         0.025680        -0.400175
 C         2.077841         1.405679        -0.078540
 C         3.523518         0.949047         0.084134
 C         3.400143        -0.476606         0.922895
 O         2.008179        -0.634311         1.250661
 H         4.073564        -2.073681        -1.901426
 H         4.857935        -0.543224        -2.271802
 H         5.388564        -1.402139        -0.784758
 H        -0.731057         0.405592         0.315481
 H        -0.096472         0.540777        -1.334808
 H        -0.242866        -1.045029        -0.604061
 H         1.978135         1.602878        -1.164815
 H         1.669124         2.271432         0.516887
 H         4.439315         1.576163        -0.118290
 H         4.065003        -0.988307         1.668177
