19
Iteration:  1360
 C         4.596019        -1.082771        -1.337321
 C         3.508481        -0.484588        -0.601254
 O         2.356261         0.060589        -1.274009
 C         1.495367         0.269976        -0.108719
 C         0.124401         0.660719        -0.419093
 C         2.353412         1.306781         0.597791
 C         3.566087         0.356669         0.690786
 C         2.999344        -1.055739         0.641678
 O         1.586467        -0.916286         0.629944
 H         4.354566        -2.091317        -1.645783
 H         4.846326        -0.457888        -2.289504
 H         5.574269        -1.273054        -0.881340
 H        -0.405220         0.926804         0.535662
 H         0.303596         1.640301        -1.039729
 H        -0.448915        -0.029438        -1.032732
 H         2.635705         2.132260        -0.076784
 H         2.181550         1.806867         1.567141
 H         4.500875         0.671068         1.196931
 H         3.332958        -2.038077         1.071687
