19
Iteration:   701
 C         4.648410        -1.054859        -1.532666
 C         3.516893        -0.512145        -0.522380
 O         2.240845        -0.389930        -1.218240
 C         1.474837         0.313208        -0.232458
 C        -0.001209         0.173006        -0.305618
 C         2.351533         1.405218         0.236896
 C         3.621062         0.665656         0.371864
 C         3.098490        -0.719133         0.918414
 O         1.709877        -0.641536         1.017515
 H         4.819666        -2.158123        -1.311832
 H         4.315980        -1.019445        -2.589337
 H         5.612287        -0.408215        -1.684800
 H        -0.585897         0.605495         0.488647
 H        -0.469716         0.637965        -1.144972
 H        -0.211590        -0.895046        -0.407773
 H         2.359056         2.273178        -0.390812
 H         2.001232         1.669050         1.302435
 H         4.497138         1.197257         0.772924
 H         3.613402        -1.398236         1.647122
