19
Iteration:  1187charge 0 multiplicity 1
 C         4.584799        -1.043271        -1.390198
 C         3.476878        -0.451612        -0.627336
 O         2.337386        -0.012078        -1.302040
 C         1.505416         0.243540        -0.057378
 C         0.110963         0.546720        -0.444584
 C         2.368656         1.366254         0.589589
 C         3.607236         0.393649         0.608683
 C         3.009483        -1.016405         0.722958
 O         1.592316        -0.880525         0.728517
 H         5.549127        -0.833818        -0.890654
 H         4.585354        -2.131742        -1.597232
 H         4.694915        -0.653012        -2.408287
 H        -0.522396         0.819146         0.392637
 H         0.083241         1.372678        -1.197131
 H        -0.243509        -0.342083        -0.928258
 H         2.654815         2.153727        -0.216774
 H         2.097027         1.821962         1.638919
 H         4.537342         0.740961         1.016891
 H         3.404411        -1.882709         1.216087
