19
Iteration:   779charge 0 multiplicity 1
 C         4.622318        -1.150263        -1.447240
 C         3.526594        -0.486655        -0.556213
 O         2.258578        -0.428566        -1.286088
 C         1.439787         0.222042        -0.119597
 C         0.001880         0.425885        -0.365676
 C         2.268833         1.412108         0.386038
 C         3.573432         0.727118         0.376327
 C         3.161243        -0.686304         0.854552
 O         1.796091        -0.804232         0.906257
 H         5.428600        -0.363206        -1.675598
 H         5.036204        -2.135403        -1.064840
 H         4.167636        -1.214930        -2.475042
 H        -0.536282         0.560750         0.541245
 H        -0.226464         1.074358        -1.190419
 H        -0.425455        -0.482943        -0.652533
 H         2.225388         2.210810        -0.291690
 H         1.958845         1.621748         1.434053
 H         4.454833         1.119751         0.814557
 H         3.599694        -0.990766         1.771491
