19
Iteration:  3013
 C         4.643644        -1.002944        -1.446427
 C         3.551383        -0.557822        -0.571428
 O         2.125127        -0.307495        -1.262611
 C         1.463681         0.203792        -0.134897
 C         0.043713         0.512941        -0.437435
 C         2.335015         1.338992         0.400205
 C         3.621260         0.565580         0.466446
 C         3.124370        -0.807284         0.848922
 O         1.733999        -0.755429         0.942846
 H         5.097893        -1.989327        -1.310970
 H         4.412908        -1.089606        -2.593224
 H         5.544561        -0.284201        -1.492867
 H        -0.497438         0.684423         0.490349
 H        -0.182024         1.097366        -1.301809
 H        -0.374930        -0.411247        -0.834553
 H         2.440273         2.212059        -0.204949
 H         2.066660         1.544263         1.450775
 H         4.437431         1.124046         0.748153
 H         3.589672        -1.673679         1.340275
