19
Iteration:  2041charge 0 multiplicity 1
 C         4.684345        -1.027204        -1.372104
 C         3.470509        -0.458773        -0.650989
 O         2.289044         0.046578        -1.250634
 C         1.480016         0.282227        -0.067736
 C         0.068333         0.663699        -0.458996
 C         2.458209         1.261983         0.511438
 C         3.602277         0.305548         0.647265
 C         3.003437        -1.048435         0.717827
 O         1.546033        -0.886769         0.706372
 H         4.464777        -2.099711        -1.563834
 H         4.946224        -0.532634        -2.222947
 H         5.515568        -1.035434        -0.634244
 H        -0.539485         1.028251         0.424053
 H         0.108291         1.438250        -1.212084
 H        -0.290025        -0.312301        -0.972050
 H         2.559311         2.113948        -0.191411
 H         2.350156         1.847963         1.476623
 H         4.638090         0.345295         0.881437
 H         3.353805        -1.847532         1.470262
