19
Iteration:   532
 C         4.638002        -1.093876        -1.436020
 C         3.507951        -0.509576        -0.613368
 O         2.206520        -0.551362        -1.153255
 C         1.421098         0.110512        -0.142173
 C        -0.058195         0.282335        -0.350810
 C         2.213116         1.376229         0.265089
 C         3.564420         0.787099         0.195128
 C         3.265185        -0.563812         0.912446
 O         1.889926        -0.656879         1.016991
 H         5.553186        -0.797363        -0.850624
 H         4.477318        -2.153699        -1.650962
 H         4.669043        -0.628594        -2.400654
 H        -0.612250         0.805389         0.409310
 H        -0.395080         0.908803        -1.219863
 H        -0.507699        -0.683053        -0.486122
 H         2.004296         2.201893        -0.555237
 H         2.037892         1.675133         1.296536
 H         4.465286         1.435458         0.449436
 H         3.834422        -0.859686         1.902955
