19
Iteration:  4066
 C         4.559097        -0.988281        -1.446685
 C         3.492500        -0.452666        -0.579865
 O         2.132312        -0.519444        -1.181285
 C         1.473391         0.166395        -0.043342
 C        -0.007797         0.242317        -0.399881
 C         2.355431         1.478250         0.119202
 C         3.650349         0.714823         0.313365
 C         3.166281        -0.671549         0.920023
 O         1.795659        -0.701726         1.115440
 H         4.310684        -1.365095        -2.489884
 H         5.435433        -0.068149        -1.645104
 H         5.122118        -1.907704        -1.076799
 H        -0.681784         0.687228         0.342342
 H        -0.115739         0.790684        -1.309382
 H        -0.216444        -0.781889        -0.681936
 H         2.284938         1.890104        -0.838913
 H         1.916628         2.187330         0.860598
 H         4.752225         0.940457         0.451884
 H         3.752057        -1.459556         1.538285
