19
Iteration:   188charge 0 multiplicity 1
 C         4.525078        -1.148963        -1.403669
 C         3.515467        -0.402207        -0.615071
 O         2.124767        -0.574639        -1.013205
 C         1.463866         0.065156         0.008351
 C         0.014697         0.075643        -0.385091
 C         2.101946         1.423241        -0.085324
 C         3.508012         0.943195         0.121539
 C         3.377335        -0.440678         0.905682
 O         2.030904        -0.645241         1.244962
 H         4.067035        -2.061327        -1.653861
 H         4.733351        -0.621985        -2.310447
 H         5.413629        -1.304732        -0.833307
 H        -0.732517         0.446160         0.310322
 H        -0.142149         0.589814        -1.342336
 H        -0.275391        -0.943758        -0.630931
 H         1.879847         1.789634        -1.145062
 H         1.567742         2.082117         0.562469
 H         4.437645         1.483155        -0.103360
 H         4.175437        -0.877175         1.582263
