19
Iteration:   351charge 0 multiplicity 1
 C         4.574328        -1.081137        -1.391930
 C         3.468140        -0.518205        -0.570406
 O         2.130444        -0.457866        -1.203603
 C         1.470295         0.173710        -0.007604
 C        -0.011300        -0.012132        -0.266579
 C         2.244940         1.448972        -0.020023
 C         3.565268         0.784843         0.194700
 C         3.321047        -0.540498         0.913702
 O         1.853318        -0.565032         1.127263
 H         4.933585        -0.382465        -2.117432
 H         5.407586        -1.129361        -0.691921
 H         4.505291        -2.049045        -1.913058
 H        -0.540788         0.380547         0.602474
 H        -0.292720         0.446781        -1.277166
 H        -0.233295        -1.087468        -0.318523
 H         2.179046         1.856942        -1.053154
 H         1.985949         2.253332         0.617063
 H         4.510342         1.362887         0.170602
 H         3.893225        -1.100785         1.667712
