19
Iteration:  1337charge 0 multiplicity 1
 C         4.553143        -1.086592        -1.438577
 C         3.556249        -0.363358        -0.606526
 O         2.305364        -0.090240        -1.293653
 C         1.499253         0.235893        -0.174831
 C         0.096830         0.833870        -0.454191
 C         2.373811         1.263977         0.602081
 C         3.601510         0.429736         0.757662
 C         3.038855        -1.000114         0.726022
 O         1.613422        -1.039076         0.671212
 H         4.211885        -1.747624        -2.195996
 H         5.347733        -0.327975        -1.866341
 H         5.166779        -1.780324        -0.821653
 H        -0.548413         0.841187         0.458675
 H         0.140157         1.872402        -0.953763
 H        -0.420808         0.145619        -1.153983
 H         2.675537         2.107749         0.039451
 H         1.934292         1.652626         1.515546
 H         4.431441         0.702622         1.378474
 H         3.405083        -1.915160         1.284250
