19
Iteration:  3325charge 0 multiplicity 1
 C         4.626574        -1.118596        -1.389414
 C         3.501397        -0.453403        -0.596974
 O         2.146412        -0.419881        -1.241548
 C         1.470455         0.194687        -0.142011
 C        -0.052468         0.354132        -0.315235
 C         2.273026         1.414516         0.264520
 C         3.611373         0.700844         0.303971
 C         3.227523        -0.682487         0.861876
 O         1.814672        -0.759463         0.971344
 H         5.660450        -1.116654        -0.894041
 H         4.542672        -2.198769        -1.394920
 H         4.652129        -0.640981        -2.451473
 H        -0.324463         0.749486         0.637780
 H        -0.020738         1.012365        -1.210273
 H        -0.553256        -0.587429        -0.410845
 H         2.195415         2.208444        -0.415028
 H         2.023987         1.771528         1.219882
 H         4.499840         1.281592         0.509902
 H         3.732292        -1.281631         1.565735
