19
Iteration:    93charge 0 multiplicity 1
 C         4.640538        -1.120078        -1.289873
 C         3.480441        -0.386431        -0.675948
 O         2.049746        -0.606381        -1.032619
 C         1.388610         0.079303         0.048956
 C        -0.148195         0.052600        -0.236751
 C         2.097515         1.406709        -0.100047
 C         3.562059         0.971278         0.022877
 C         3.440854        -0.414179         0.882158
 O         2.106437        -0.687659         1.149393
 H         5.021838        -0.477067        -2.169129
 H         5.507446        -1.165359        -0.505445
 H         4.276870        -2.153281        -1.670323
 H        -0.783462         0.635721         0.422578
 H        -0.171268         0.518090        -1.262738
 H        -0.452758        -0.982716        -0.350875
 H         1.961315         1.850204        -1.107460
 H         1.689004         2.219530         0.592398
 H         4.419073         1.548025        -0.309524
 H         4.179652        -1.113632         1.370767
