19
Iteration:   105
 C         4.605183        -1.082308        -1.358332
 C         3.504629        -0.379885        -0.620043
 O         2.114870        -0.588381        -1.118579
 C         1.452936         0.036631        -0.003190
 C        -0.113490         0.028043        -0.135373
 C         2.170599         1.445744        -0.144593
 C         3.530854         0.933508         0.069977
 C         3.385372        -0.352990         0.882070
 O         1.981676        -0.724672         1.138810
 H         4.887543        -0.924389        -2.453341
 H         5.545963        -0.970176        -0.699141
 H         4.401477        -2.202046        -1.233186
 H        -0.613768         0.658719         0.603444
 H        -0.397589         0.357113        -1.186788
 H        -0.507785        -0.985110         0.010158
 H         1.976117         1.616250        -1.207759
 H         2.008123         2.347037         0.543834
 H         4.322954         1.646710         0.130858
 H         4.086395        -0.833965         1.568186
