19
Iteration:  4457charge 0 multiplicity 1
 C         4.554091        -1.296151        -1.317987
 C         3.498265        -0.399710        -0.621796
 O         2.162903        -0.388404        -1.207874
 C         1.462983         0.125994        -0.039808
 C        -0.078604         0.053299        -0.238995
 C         2.189438         1.470666         0.083583
 C         3.631063         0.944413         0.167383
 C         3.315130        -0.556567         0.837902
 O         1.877954        -0.639970         1.067993
 H         4.260353        -1.953818        -2.211944
 H         5.404515        -0.625476        -1.781830
 H         5.129861        -2.040600        -0.693008
 H        -0.536265         0.587849         0.642986
 H        -0.329940         0.446395        -1.296514
 H        -0.144291        -1.077532        -0.369615
 H         1.938191         2.003710        -0.753633
 H         2.013864         1.855893         1.082807
 H         4.501766         1.541913         0.414024
 H         3.923020        -1.129488         1.442402
