19
Iteration:  4175charge 0 multiplicity 1
 C         4.617120        -1.177826        -1.440866
 C         3.524310        -0.533876        -0.580952
 O         2.211827        -0.480640        -1.205051
 C         1.471849         0.231183        -0.141538
 C        -0.035177         0.136993        -0.246490
 C         2.266546         1.450566         0.195936
 C         3.635257         0.809720         0.286670
 C         3.183887        -0.573941         0.843420
 O         1.814325        -0.591694         0.990094
 H         5.155202        -0.340318        -1.870651
 H         5.108182        -1.986480        -0.795348
 H         4.261047        -1.826752        -2.211413
 H        -0.457362         0.627104         0.602851
 H        -0.493280         0.591856        -1.084753
 H        -0.369457        -0.858721        -0.449935
 H         2.096125         2.290183        -0.386721
 H         1.862839         1.649851         1.223343
 H         4.569448         1.286050         0.520585
 H         3.572309        -1.136554         1.572503
