19
Iteration:  1420charge 0 multiplicity 1
 C         4.549923        -0.912574        -1.532944
 C         3.452368        -0.534533        -0.587171
 O         2.344915         0.001589        -1.224795
 C         1.511526         0.307965        -0.098667
 C         0.205704         0.695778        -0.618436
 C         2.445777         1.310044         0.595594
 C         3.658070         0.286543         0.774731
 C         2.964827        -1.035298         0.755927
 O         1.502573        -0.973875         0.776260
 H         4.642492        -1.988271        -1.308193
 H         4.196554        -0.895399        -2.498538
 H         5.383773        -0.269776        -1.349459
 H        -0.493682         1.167204         0.044930
 H         0.330149         1.360433        -1.408952
 H        -0.228308        -0.210836        -1.102483
 H         2.755087         2.128512        -0.207884
 H         2.119708         1.613012         1.617165
 H         4.588364         0.408372         1.266879
 H         3.364518        -1.925265         1.331696
