19
Iteration:  4988
 C         4.626969        -1.058652        -1.441787
 C         3.538729        -0.550431        -0.535470
 O         2.208665        -0.616269        -1.157417
 C         1.462110         0.106222        -0.144572
 C        -0.032420         0.256899        -0.263903
 C         2.187248         1.470397         0.017302
 C         3.583856         0.872839         0.255446
 C         3.242340        -0.613239         0.871381
 O         1.809372        -0.658645         1.133790
 H         5.599593        -0.509687        -1.235261
 H         4.871772        -2.181162        -1.307820
 H         4.520927        -1.017331        -2.628364
 H        -0.288505         0.888868         0.678750
 H        -0.249241         0.926649        -1.213834
 H        -0.450130        -0.809058        -0.229678
 H         2.054297         2.020561        -0.912172
 H         1.648027         2.017559         0.730563
 H         4.549719         1.536578         0.366975
 H         3.832302        -1.043897         1.714423
