19
Iteration:  1326charge 0 multiplicity 1
 C         4.598210        -1.063795        -1.445677
 C         3.505661        -0.533883        -0.563772
 O         2.302827        -0.114530        -1.295165
 C         1.477882         0.285524        -0.173089
 C         0.108149         0.734121        -0.499880
 C         2.387700         1.255175         0.680354
 C         3.620689         0.414002         0.692311
 C         3.018706        -0.924965         0.748838
 O         1.602860        -0.936674         0.658320
 H         4.078831        -1.232274        -2.361594
 H         5.350205        -0.200507        -1.730634
 H         5.120178        -1.914239        -0.968149
 H        -0.371266         0.863828         0.495539
 H         0.310582         1.833931        -0.831152
 H        -0.445630         0.228734        -1.314779
 H         2.439603         2.182574         0.145036
 H         2.092304         1.341810         1.730478
 H         4.425157         0.779530         1.281754
 H         3.583282        -1.817712         1.139756
