19
Iteration:  1620charge 0 multiplicity 1
 C         4.691047        -1.006548        -1.477461
 C         3.521487        -0.507501        -0.589488
 O         2.399533        -0.080410        -1.288879
 C         1.534152         0.355149        -0.197674
 C         0.045668         0.630303        -0.412747
 C         2.471793         1.266756         0.692487
 C         3.670670         0.266330         0.731981
 C         2.860619        -1.074133         0.730893
 O         1.479328        -0.721882         0.560337
 H         5.423483        -1.201660        -0.783114
 H         4.408622        -1.853091        -2.144274
 H         5.039839        -0.201862        -2.097135
 H        -0.402413         0.905264         0.547006
 H        -0.100989         1.410335        -1.121319
 H        -0.441081        -0.324724        -0.648418
 H         2.530278         2.338935         0.180483
 H         1.957149         1.461515         1.684223
 H         4.532232         0.164578         1.342899
 H         3.127273        -1.774601         1.617851
