19
Iteration:   738charge 0 multiplicity 1
 C         4.465727        -1.085322        -1.374461
 C         3.484259        -0.434777        -0.624852
 O         2.200955        -0.278070        -1.256005
 C         1.469456         0.205922        -0.120457
 C        -0.061390         0.251975        -0.452742
 C         2.339600         1.404511         0.270278
 C         3.625269         0.691622         0.422079
 C         3.219434        -0.748095         0.853318
 O         1.880566        -0.793634         1.043993
 H         5.213103        -1.416338        -0.658257
 H         3.919146        -1.976613        -1.801746
 H         4.979634        -0.414571        -2.000398
 H        -0.689745         0.600227         0.391213
 H        -0.062497         0.983747        -1.349907
 H        -0.204413        -0.752393        -0.837478
 H         2.336355         2.125375        -0.561524
 H         2.030876         1.924153         1.095179
 H         4.508274         1.284737         0.681718
 H         3.842480        -1.393088         1.435911
