19
Iteration:  4700charge 0 multiplicity 1
 C         4.636837        -0.967745        -1.494638
 C         3.545551        -0.599329        -0.503902
 O         2.148682        -0.575439        -1.148228
 C         1.475245         0.073908        -0.164664
 C        -0.094438         0.209294        -0.268840
 C         2.300328         1.410923         0.030215
 C         3.627989         0.782053         0.229736
 C         3.215829        -0.621238         0.923125
 O         1.789762        -0.534289         1.107358
 H         5.600738        -1.373705        -1.071144
 H         4.498738        -1.895739        -2.086538
 H         4.840140        -0.094118        -2.102731
 H        -0.331897         0.617551         0.724146
 H        -0.362171         0.870836        -1.082886
 H        -0.503224        -0.844014        -0.332703
 H         2.146173         1.973680        -0.784036
 H         2.033557         2.021878         0.825023
 H         4.534169         1.280492         0.516168
 H         3.722120        -1.012248         1.719732
