19
Iteration:  1289
 C         4.631810        -0.933420        -1.482850
 C         3.462348        -0.524555        -0.593252
 O         2.262990        -0.023954        -1.247969
 C         1.529005         0.356483        -0.105736
 C         0.086451         0.521165        -0.622650
 C         2.573691         1.303616         0.603661
 C         3.619989         0.286829         0.742460
 C         2.932123        -1.027838         0.733710
 O         1.538644        -0.804894         0.831517
 H         4.312815        -0.714862        -2.591810
 H         5.592955        -0.500821        -1.218125
 H         4.799592        -2.034601        -1.722034
 H        -0.629813         0.597981         0.198649
 H        -0.041391         1.411719        -1.145943
 H        -0.251583        -0.318395        -1.270076
 H         2.859620         2.142720        -0.021719
 H         2.173195         1.720761         1.501154
 H         4.611795         0.360909         1.284811
 H         3.396624        -1.937926         1.024128
