19
Iteration:  2710charge 0 multiplicity 1
 C         4.599559        -0.982725        -1.561904
 C         3.536168        -0.492985        -0.582783
 O         2.241654        -0.221187        -1.241362
 C         1.530543         0.339710        -0.129260
 C         0.005269         0.468305        -0.547761
 C         2.397021         1.347330         0.495303
 C         3.655332         0.428878         0.598994
 C         3.052741        -0.934511         0.908792
 O         1.633375        -0.755183         0.895643
 H         4.255418        -0.624375        -2.554206
 H         5.632169        -0.622740        -1.222604
 H         4.629606        -2.019000        -1.752659
 H        -0.599527         0.409193         0.362587
 H        -0.136971         1.231904        -1.340220
 H        -0.058285        -0.411434        -1.164865
 H         2.540163         2.166559        -0.280510
 H         1.837858         1.657058         1.420792
 H         4.709635         0.706956         1.006800
 H         3.549210        -1.709536         1.560823
