19
Iteration:  4995
 C         4.709745        -1.038998        -1.444574
 C         3.558176        -0.561450        -0.553141
 O         2.182075        -0.647144        -1.160404
 C         1.416822         0.179409        -0.194833
 C        -0.072219         0.248727        -0.246396
 C         2.175537         1.436768         0.002270
 C         3.608671         0.828350         0.249404
 C         3.274385        -0.608145         0.929632
 O         1.798804        -0.632100         1.136978
 H         5.594733        -0.460895        -1.304049
 H         4.817122        -2.031444        -1.237040
 H         4.437335        -0.860619        -2.473622
 H        -0.255794         0.809004         0.647985
 H        -0.358650         0.851361        -1.092938
 H        -0.619512        -0.624232        -0.331332
 H         2.092918         2.002479        -0.925009
 H         1.880060         1.910910         1.003801
 H         4.503323         1.413522         0.233720
 H         3.844882        -1.119710         1.629936
