19
Iteration:  1500charge 0 multiplicity 1
 C         4.618286        -1.093446        -1.290775
 C         3.453498        -0.468781        -0.657916
 O         2.342111         0.058958        -1.211775
 C         1.494666         0.406180        -0.044997
 C         0.013129         0.635621        -0.515696
 C         2.632022         1.352852         0.613340
 C         3.569946         0.252584         0.723946
 C         2.946629        -1.071059         0.607023
 O         1.519556        -0.917467         0.594287
 H         5.427039        -0.668997        -0.751631
 H         4.597508        -2.248795        -1.570212
 H         4.819901        -0.674152        -2.322293
 H        -0.568134         0.607052         0.420359
 H        -0.134991         1.632663        -1.040514
 H        -0.243752        -0.222155        -1.072451
 H         2.767375         2.118635        -0.129988
 H         2.517540         1.821958         1.591566
 H         4.531872         0.370691         1.269886
 H         3.434423        -1.915980         0.933872
