19
Iteration:    66charge 0 multiplicity 1
 C         4.620832        -1.138407        -1.467120
 C         3.471843        -0.480284        -0.701726
 O         2.128721        -0.749812        -1.128458
 C         1.449395         0.045110        -0.045035
 C         0.051772        -0.026857        -0.251984
 C         2.136304         1.435290         0.074857
 C         3.474949         0.895309        -0.021320
 C         3.318812        -0.297871         0.922609
 O         1.956016        -0.414179         1.266332
 H         5.260473        -0.382190        -1.847151
 H         5.186207        -1.722857        -0.794192
 H         4.229475        -1.769832        -2.210598
 H        -0.502826         0.331209         0.630113
 H        -0.208480         0.589625        -1.093397
 H        -0.239622        -1.072267        -0.449953
 H         1.887323         2.234953        -0.619558
 H         2.015337         1.660252         1.134596
 H         4.373885         1.508148         0.043631
 H         4.040218        -0.692085         1.563090
