19
Iteration:  3727
 C         4.607286        -1.099083        -1.407630
 C         3.485984        -0.479110        -0.601194
 O         2.223770        -0.387973        -1.261909
 C         1.428666         0.176665        -0.071327
 C        -0.037522         0.235904        -0.248692
 C         2.348754         1.486632         0.104799
 C         3.659640         0.750238         0.409039
 C         3.156316        -0.678361         0.856740
 O         1.793357        -0.767238         0.967687
 H         4.906912        -2.001975        -0.877066
 H         4.301668        -1.545682        -2.341483
 H         5.264759        -0.303772        -1.539698
 H        -0.541235         0.709566         0.635417
 H        -0.437053         0.895848        -1.121041
 H        -0.520254        -0.807884        -0.269509
 H         2.452340         2.022424        -0.864244
 H         1.822271         2.273195         0.799599
 H         4.660690         1.065004         0.852336
 H         3.713006        -1.291573         1.608258
