19
Iteration:  1540
 C         4.540989        -1.050662        -1.530980
 C         3.514457        -0.568358        -0.544831
 O         2.463111        -0.080719        -1.271830
 C         1.513020         0.340488        -0.199500
 C         0.147410         0.804408        -0.540991
 C         2.335745         1.229749         0.750168
 C         3.599964         0.335779         0.692182
 C         2.942352        -1.016080         0.731371
 O         1.581972        -0.863015         0.660783
 H         5.473967        -0.666298        -1.117424
 H         4.640316        -2.072385        -1.459752
 H         4.282201        -0.753608        -2.521422
 H        -0.311202         0.771199         0.434867
 H        -0.049950         1.806273        -0.938784
 H        -0.374084         0.124078        -1.181388
 H         2.494041         2.333301         0.319785
 H         2.104534         1.139888         1.836370
 H         4.418982         0.618167         1.406140
 H         3.158149        -1.858212         1.371520
