19
Iteration:  2808charge 0 multiplicity 1
 C         4.523775        -1.044991        -1.445155
 C         3.468275        -0.509280        -0.591177
 O         2.260314        -0.131680        -1.238185
 C         1.475731         0.220411        -0.068224
 C         0.035787         0.433308        -0.518393
 C         2.356955         1.390833         0.460733
 C         3.672531         0.500952         0.600623
 C         3.124743        -0.889638         0.824409
 O         1.691124        -0.816269         0.799284
 H         4.510345        -0.584096        -2.466827
 H         5.472033        -0.894565        -0.824931
 H         4.474528        -2.072736        -1.756709
 H        -0.500824         0.897319         0.380045
 H         0.268818         1.247639        -1.290579
 H        -0.480199        -0.503268        -0.915313
 H         2.477381         2.146355        -0.335721
 H         2.152752         1.897363         1.413383
 H         4.719898         0.813644         0.930597
 H         3.467738        -1.751408         1.410706
