19
Iteration:   588charge 0 multiplicity 1
 C         4.570841        -1.145230        -1.466819
 C         3.479665        -0.474255        -0.584572
 O         2.217156        -0.311501        -1.223008
 C         1.481718         0.178530        -0.046051
 C        -0.054127         0.069955        -0.329419
 C         2.287990         1.501010         0.119153
 C         3.626294         0.746820         0.445460
 C         3.260235        -0.632511         0.921400
 O         1.774276        -0.677443         0.979332
 H         4.760442        -0.383571        -2.221640
 H         5.442267        -1.525240        -0.878563
 H         4.070388        -1.958551        -1.995658
 H        -0.625683         0.229206         0.552001
 H        -0.255302         0.659709        -1.237554
 H        -0.133990        -0.945900        -0.627558
 H         2.319688         2.013918        -0.949124
 H         2.043972         2.189273         0.902849
 H         4.547174         1.188962         0.735507
 H         3.820402        -1.321539         1.592392
