19
Iteration:  2466charge 0 multiplicity 1
 C         4.680558        -1.149511        -1.395091
 C         3.493339        -0.476442        -0.656953
 O         2.254041        -0.086352        -1.319641
 C         1.487680         0.256513        -0.236575
 C         0.005349         0.518332        -0.405199
 C         2.335166         1.321939         0.563861
 C         3.601720         0.494106         0.533094
 C         3.076694        -0.862076         0.825583
 O         1.688599        -0.850414         0.792327
 H         4.451193        -1.254537        -2.464065
 H         5.584462        -0.617774        -1.549945
 H         4.914141        -2.085854        -0.861199
 H        -0.369367         0.912920         0.587737
 H        -0.100154         1.394898        -1.072262
 H        -0.554749        -0.461105        -0.601500
 H         2.517251         2.283223         0.100123
 H         1.913347         1.401735         1.576731
 H         4.504643         0.818525         1.056678
 H         3.570740        -1.388374         1.582055
