19
Iteration:  4400charge 0 multiplicity 1
 C         4.574155        -1.051776        -1.503900
 C         3.536860        -0.528522        -0.582113
 O         2.255771        -0.584990        -1.158338
 C         1.436953         0.112325        -0.138908
 C        -0.078137         0.153429        -0.288566
 C         2.263217         1.444385         0.093506
 C         3.551553         0.735789         0.201263
 C         3.251511        -0.511780         1.001740
 O         1.832354        -0.549570         1.080749
 H         4.337640        -2.111904        -1.834904
 H         4.600135        -0.417500        -2.433395
 H         5.724856        -1.158357        -1.159937
 H        -0.448327         0.578036         0.657742
 H        -0.355247         0.823064        -1.095608
 H        -0.475058        -0.907433        -0.185534
 H         2.125176         2.137396        -0.767066
 H         2.006284         2.040454         0.926063
 H         4.486717         1.166227         0.547178
 H         3.840601        -0.997466         1.872145
