19
Iteration:  2074charge 0 multiplicity 1
 C         4.628100        -0.985134        -1.348895
 C         3.455212        -0.528650        -0.617617
 O         2.289952        -0.116539        -1.298866
 C         1.536490         0.371804        -0.209400
 C         0.056416         0.635106        -0.455538
 C         2.461461         1.338397         0.605548
 C         3.664208         0.331878         0.657081
 C         2.975025        -1.014796         0.688852
 O         1.560626        -0.806060         0.737882
 H         4.410186        -1.543824        -2.285026
 H         5.288690        -0.250974        -1.657588
 H         5.182688        -1.715203        -0.730189
 H        -0.424559         0.654559         0.555269
 H        -0.320575         1.377603        -1.155786
 H        -0.259201        -0.418191        -0.854874
 H         2.767217         2.246416         0.043332
 H         2.119512         1.364912         1.691278
 H         4.733673         0.396945         0.828399
 H         3.246437        -1.878557         1.365940
