19
Iteration:  3773charge 0 multiplicity 1
 C         4.633583        -1.053292        -1.455027
 C         3.495140        -0.567853        -0.610584
 O         2.177164        -0.553334        -1.206542
 C         1.456408         0.136712        -0.164586
 C        -0.015408         0.319315        -0.392489
 C         2.337550         1.415569         0.366465
 C         3.588046         0.740700         0.318843
 C         3.199414        -0.602476         0.872977
 O         1.768196        -0.633218         1.004617
 H         5.371348        -1.725436        -0.979387
 H         4.356258        -1.777103        -2.142314
 H         4.951225        -0.161964        -2.039317
 H        -0.575499         0.720823         0.475927
 H        -0.060641         1.074762        -1.233346
 H        -0.511228        -0.650308        -0.678240
 H         2.159573         2.308176        -0.237394
 H         2.080090         1.692487         1.490680
 H         4.599234         1.260412         0.433761
 H         3.848433        -1.179037         1.591839
