19
Iteration:  3333
 C         4.604173        -1.112397        -1.375011
 C         3.515285        -0.439970        -0.666421
 O         2.162250        -0.379392        -1.215262
 C         1.440302         0.176688        -0.096012
 C        -0.006324         0.330567        -0.330994
 C         2.251628         1.444651         0.198862
 C         3.607852         0.717994         0.365455
 C         3.224362        -0.671127         0.852308
 O         1.818231        -0.825081         1.016750
 H         5.622918        -1.289049        -0.963558
 H         4.184064        -2.195351        -1.586735
 H         4.853886        -0.708265        -2.401907
 H        -0.397312         0.970090         0.490982
 H        -0.155835         1.064309        -1.097093
 H        -0.351658        -0.653369        -0.490140
 H         2.386730         2.200891        -0.622976
 H         1.918859         1.948510         1.094831
 H         4.562378         1.297294         0.475721
 H         3.721921        -1.475703         1.578907
