19
Iteration:  1047charge 0 multiplicity 1
 C         4.599246        -1.096248        -1.420060
 C         3.496720        -0.368701        -0.611919
 O         2.290705        -0.063969        -1.247451
 C         1.468891         0.264501        -0.070347
 C        -0.020618         0.332935        -0.418925
 C         2.500652         1.413337         0.413387
 C         3.612624         0.406851         0.691756
 C         3.028322        -0.932380         0.719375
 O         1.652056        -0.769450         0.756641
 H         4.458334        -0.853038        -2.522278
 H         5.589968        -0.692410        -1.042572
 H         4.797377        -2.226899        -1.229708
 H        -0.589002         0.787376         0.386776
 H        -0.304349         1.060512        -1.217889
 H        -0.332746        -0.678272        -0.677505
 H         2.794102         1.990113        -0.390869
 H         2.059994         2.022123         1.125267
 H         4.484858         0.815043         1.305345
 H         3.407517        -1.877512         1.150049
