19
Iteration:   589
 C         4.567362        -1.149669        -1.465081
 C         3.489097        -0.478801        -0.591021
 O         2.218167        -0.314444        -1.222553
 C         1.485845         0.176242        -0.051385
 C        -0.053066         0.068939        -0.325712
 C         2.293251         1.511733         0.123720
 C         3.617928         0.752902         0.442664
 C         3.255093        -0.635489         0.926135
 O         1.770681        -0.677548         0.977194
 H         4.757519        -0.381913        -2.248854
 H         5.490920        -1.467748        -0.885684
 H         4.058774        -1.997497        -2.019563
 H        -0.610680         0.217647         0.567064
 H        -0.231046         0.637222        -1.216144
 H        -0.142934        -0.955411        -0.629905
 H         2.319994         2.034951        -0.917959
 H         2.073467         2.209877         0.921618
 H         4.518452         1.198804         0.737565
 H         3.761411        -1.319593         1.589217
