19
Iteration:   267
 C         4.571442        -1.060728        -1.342548
 C         3.454845        -0.436496        -0.664585
 O         2.159267        -0.554076        -1.124767
 C         1.382792         0.211306         0.004878
 C        -0.083188        -0.089763        -0.221511
 C         2.253769         1.452343        -0.123212
 C         3.659322         0.833318         0.271618
 C         3.303857        -0.498669         0.862687
 O         1.919845        -0.562208         1.097326
 H         5.321572        -1.047802        -0.535771
 H         4.230603        -2.098979        -1.545027
 H         4.923927        -0.560635        -2.273328
 H        -0.778716         0.499926         0.383722
 H        -0.261292         0.447223        -1.199212
 H        -0.296762        -1.151505        -0.096279
 H         2.289490         1.773080        -1.157123
 H         1.981761         2.255558         0.690714
 H         4.622289         1.287211         0.008903
 H         3.872821        -1.226383         1.402774
