19
Iteration:  2782
 C         4.616946        -1.120508        -1.442218
 C         3.598584        -0.446851        -0.586009
 O         2.312783        -0.219234        -1.343579
 C         1.505024         0.261236        -0.202266
 C         0.015899         0.551528        -0.367849
 C         2.238150         1.417912         0.485903
 C         3.628801         0.563719         0.633600
 C         3.068162        -0.853055         0.769283
 O         1.670264        -0.892881         0.793651
 H         4.275909        -1.039258        -2.444819
 H         5.602950        -0.867289        -1.134913
 H         4.448218        -2.247444        -1.342597
 H        -0.115008         0.879882         0.647875
 H        -0.114020         1.279926        -1.181911
 H        -0.527142        -0.343082        -0.591496
 H         2.228839         2.347274         0.010889
 H         1.987034         1.455924         1.504215
 H         4.617003         0.696231         1.067463
 H         3.492875        -1.605817         1.443119
