19
Iteration:  4106charge 0 multiplicity 1
 C         4.586822        -1.154455        -1.539688
 C         3.532458        -0.450443        -0.607546
 O         2.258269        -0.509078        -1.194177
 C         1.457712         0.106456        -0.152872
 C        -0.020602         0.266621        -0.350833
 C         2.246715         1.438788         0.207407
 C         3.607531         0.817323         0.357831
 C         3.149415        -0.591381         0.963250
 O         1.816992        -0.685325         1.066784
 H         4.085087        -1.104179        -2.470598
 H         5.535163        -0.844768        -1.581697
 H         4.757895        -2.184077        -1.270996
 H        -0.460495         0.784137         0.533018
 H        -0.142966         0.843176        -1.300971
 H        -0.415778        -0.711182        -0.744362
 H         2.146439         2.338188        -0.489840
 H         1.912318         1.836913         1.215947
 H         4.566003         1.347363         0.488842
 H         3.778046        -1.145217         1.811511
