19
Iteration:  3944charge 0 multiplicity 1
 C         4.548141        -1.063608        -1.492192
 C         3.497542        -0.567767        -0.570056
 O         2.248526        -0.469079        -1.186192
 C         1.488871         0.223918        -0.182458
 C        -0.017758         0.192540        -0.416621
 C         2.344473         1.498073         0.308448
 C         3.607532         0.701895         0.404347
 C         3.185862        -0.700769         0.920908
 O         1.746441        -0.610132         1.024057
 H         5.254728        -1.849067        -1.300538
 H         4.016161        -1.482812        -2.479867
 H         5.129564        -0.255533        -1.966861
 H        -0.450575         0.577306         0.424684
 H        -0.471275         0.766118        -1.227716
 H        -0.142373        -0.815546        -0.747968
 H         2.467265         2.314315        -0.322947
 H         1.936950         1.802900         1.266260
 H         4.463065         1.297053         0.377760
 H         3.705331        -1.251823         1.589554
