19
Iteration:   521charge 0 multiplicity 1
 C         4.608178        -1.047571        -1.407302
 C         3.510873        -0.460049        -0.580837
 O         2.192792        -0.513908        -1.199531
 C         1.459430         0.085940        -0.109187
 C        -0.088760         0.235362        -0.342529
 C         2.226272         1.425000         0.126742
 C         3.584400         0.773634         0.222789
 C         3.284777        -0.587764         0.922113
 O         1.836317        -0.690556         1.086497
 H         5.538146        -1.260444        -0.839003
 H         4.376856        -2.071916        -1.747692
 H         4.877391        -0.402349        -2.214155
 H        -0.331996         0.771600         0.569200
 H        -0.147251         0.823985        -1.297400
 H        -0.668359        -0.671060        -0.381687
 H         2.097774         2.337837        -0.589145
 H         1.863071         1.790192         1.095002
 H         4.570573         1.321266         0.348682
 H         4.018771        -1.219485         1.564404
