19
Iteration:  3933charge 0 multiplicity 1
 C         4.599090        -1.021714        -1.572677
 C         3.518546        -0.588200        -0.541599
 O         2.259796        -0.481136        -1.206353
 C         1.498035         0.271103        -0.275574
 C        -0.025770         0.200353        -0.374090
 C         2.308952         1.442442         0.245751
 C         3.674135         0.690682         0.431104
 C         3.088842        -0.684051         0.941180
 O         1.763535        -0.611828         1.064500
 H         5.412735        -1.615084        -1.149050
 H         3.967031        -1.731585        -2.261264
 H         4.894570        -0.110750        -2.096323
 H        -0.367379         0.436010         0.564117
 H        -0.241332         0.945296        -1.138115
 H        -0.498630        -0.762024        -0.404193
 H         2.336796         2.291126        -0.344796
 H         1.843521         1.711575         1.187083
 H         4.600272         1.140912         0.671122
 H         3.425642        -1.298041         1.671309
