19
Iteration:  2129
 C         4.469422        -1.017282        -1.507648
 C         3.494072        -0.405447        -0.510692
 O         2.258666        -0.097179        -1.233422
 C         1.468000         0.225883        -0.129087
 C         0.156537         0.686666        -0.614016
 C         2.424737         1.309443         0.587594
 C         3.604280         0.410788         0.735642
 C         3.061873        -1.004721         0.794817
 O         1.694631        -0.944304         0.769434
 H         3.970646        -0.980727        -2.503297
 H         5.466049        -0.655259        -1.444908
 H         4.644702        -2.097291        -1.244074
 H        -0.710308         1.079829        -0.051146
 H         0.398455         1.527633        -1.313111
 H        -0.246473        -0.125046        -1.357245
 H         2.580251         2.170381        -0.182958
 H         2.203901         1.765973         1.642042
 H         4.559913         0.715711         1.171857
 H         3.414088        -1.956351         1.108042
