19
Iteration:  3088
 C         4.535752        -1.126628        -1.454370
 C         3.531260        -0.411204        -0.576973
 O         2.243087        -0.270300        -1.249651
 C         1.504393         0.249074        -0.172120
 C         0.022321         0.268565        -0.436747
 C         2.355665         1.451563         0.405557
 C         3.581199         0.634351         0.410479
 C         3.141255        -0.767838         0.888474
 O         1.746303        -0.788493         0.951901
 H         4.063116        -1.618386        -2.278781
 H         5.121031        -0.448268        -2.122719
 H         5.053303        -2.044950        -1.051507
 H        -0.417138         0.573418         0.517908
 H        -0.115720         1.038530        -1.191152
 H        -0.600276        -0.531496        -0.778322
 H         2.437562         2.355446        -0.253997
 H         1.971489         1.782818         1.476043
 H         4.488549         0.990261         0.826228
 H         3.790706        -1.480624         1.525943
