19
Iteration:  3298charge 0 multiplicity 1
 C         4.663875        -1.046108        -1.448426
 C         3.452999        -0.565576        -0.617912
 O         2.197356        -0.460214        -1.273632
 C         1.462602         0.234173        -0.109196
 C        -0.000912         0.320442        -0.312792
 C         2.311087         1.443358         0.282603
 C         3.628519         0.656858         0.343764
 C         3.177437        -0.682176         0.818939
 O         1.743010        -0.670678         1.021474
 H         5.559196        -0.445586        -1.144192
 H         4.905574        -2.152625        -1.188646
 H         4.424600        -0.973188        -2.479736
 H        -0.357469         0.531100         0.725623
 H        -0.150903         0.883536        -1.227965
 H        -0.569424        -0.652800        -0.499899
 H         2.314530         2.364076        -0.414420
 H         1.943444         1.757329         1.329704
 H         4.587080         1.113318         0.543300
 H         3.631027        -1.415732         1.581029
