19
Iteration:  2562
 C         4.526663        -0.974403        -1.544053
 C         3.476494        -0.529303        -0.572194
 O         2.230555        -0.307734        -1.257336
 C         1.520847         0.275685        -0.115304
 C         0.069591         0.556893        -0.605063
 C         2.368657         1.364884         0.519692
 C         3.654051         0.599174         0.592441
 C         3.092620        -0.833910         0.889332
 O         1.689841        -0.922606         0.909649
 H         4.973041        -0.083973        -2.049516
 H         5.438218        -1.425950        -1.103235
 H         4.085785        -1.833777        -2.134028
 H        -0.520480         0.842072         0.319305
 H         0.170342         1.400627        -1.324676
 H        -0.345226        -0.392608        -1.141715
 H         2.305751         2.199508        -0.110793
 H         1.945937         1.478600         1.482068
 H         4.710471         0.810714         0.930314
 H         3.682124        -1.575557         1.396394
