19
Iteration:   320
 C         4.526522        -1.174917        -1.455549
 C         3.586691        -0.349007        -0.574467
 O         2.163280        -0.651361        -1.067816
 C         1.471294         0.048549        -0.086625
 C        -0.110666         0.136462        -0.392941
 C         2.138815         1.432606         0.063925
 C         3.538129         0.923139         0.194417
 C         3.395595        -0.443372         0.925974
 O         1.943831        -0.642157         1.114866
 H         5.304239        -0.637443        -1.896890
 H         4.942643        -1.954402        -0.855555
 H         3.932861        -1.610788        -2.242537
 H        -0.465826         0.853717         0.357101
 H        -0.172283         0.655669        -1.403084
 H        -0.499442        -0.878814        -0.353499
 H         2.065775         1.955426        -0.890128
 H         1.886334         1.989757         1.002275
 H         4.417411         1.577725         0.385994
 H         4.007364        -0.892030         1.734932
