19
Iteration:  3186
 C         4.579683        -1.072841        -1.385375
 C         3.498300        -0.451430        -0.656224
 O         2.207073        -0.292419        -1.217839
 C         1.482353         0.192883        -0.098082
 C        -0.014665         0.351989        -0.338982
 C         2.333833         1.395006         0.204187
 C         3.613685         0.647889         0.394101
 C         3.177963        -0.756956         0.853191
 O         1.739794        -0.817505         0.978248
 H         5.217333        -0.468051        -2.008516
 H         5.371980        -1.183784        -0.632346
 H         4.324831        -1.914346        -2.069160
 H        -0.553183         0.683208         0.624104
 H        -0.367732         1.027998        -1.241813
 H        -0.348970        -0.725483        -0.397804
 H         2.581256         2.048420        -0.684354
 H         1.989811         2.125710         1.097032
 H         4.510371         1.268837         0.729509
 H         3.750167        -1.537324         1.419977
