19
Iteration:  1398
 C         4.660362        -0.993537        -1.496059
 C         3.504564        -0.506735        -0.583813
 O         2.319059        -0.063166        -1.259521
 C         1.522277         0.380388        -0.172345
 C         0.096243         0.573999        -0.589171
 C         2.461791         1.295696         0.783680
 C         3.583954         0.262003         0.683930
 C         2.917488        -1.116542         0.720094
 O         1.573784        -0.692650         0.718994
 H         4.723834        -2.099129        -1.591182
 H         4.307302        -0.649508        -2.398096
 H         5.535314        -0.425739        -1.264543
 H        -0.459282         0.958421         0.249643
 H        -0.022073         1.251652        -1.358810
 H        -0.295054        -0.402122        -0.959423
 H         3.025221         2.226724         0.393466
 H         1.999960         1.301411         1.801566
 H         4.524221         0.536311         1.089654
 H         3.093997        -2.093026         1.200554
