19
Iteration:  1720
 C         4.572352        -0.975451        -1.540966
 C         3.553411        -0.538625        -0.556570
 O         2.412183        -0.049697        -1.332049
 C         1.509070         0.354484        -0.140432
 C         0.087991         0.600186        -0.520735
 C         2.508030         1.393068         0.665054
 C         3.618211         0.328598         0.803080
 C         2.894042        -1.070325         0.765574
 O         1.493956        -0.879400         0.696873
 H         4.692997        -2.009265        -1.453324
 H         4.228028        -0.698196        -2.551468
 H         5.498624        -0.530736        -1.274427
 H        -0.417321         0.528711         0.448878
 H        -0.108587         1.525800        -1.033288
 H        -0.240396        -0.287191        -1.133966
 H         2.843806         2.136170        -0.113449
 H         2.035127         1.882805         1.582584
 H         4.568509         0.407223         1.396169
 H         3.164156        -1.943189         1.264041
