19
Iteration:  3777
 C         4.658532        -1.057707        -1.482648
 C         3.481406        -0.552388        -0.593751
 O         2.158844        -0.545986        -1.208921
 C         1.446811         0.161026        -0.133889
 C        -0.001089         0.283261        -0.421980
 C         2.318825         1.429898         0.372072
 C         3.630078         0.709645         0.324084
 C         3.218931        -0.606178         0.911658
 O         1.767389        -0.623182         0.988427
 H         5.387613        -1.648226        -0.888567
 H         4.168804        -1.897760        -2.155384
 H         4.871229        -0.157605        -2.118665
 H        -0.492044         0.766287         0.413216
 H        -0.218998         0.989782        -1.161410
 H        -0.475989        -0.585567        -0.773621
 H         2.196249         2.388369        -0.162193
 H         2.082014         1.598819         1.363866
 H         4.499624         1.221750         0.419051
 H         3.803701        -1.137322         1.564655
