19
Iteration:  3696charge 0 multiplicity 1
 C         4.565218        -1.177585        -1.437246
 C         3.492055        -0.526581        -0.618492
 O         2.171886        -0.373587        -1.244505
 C         1.475758         0.230247        -0.175866
 C        -0.002445         0.149077        -0.381602
 C         2.269650         1.422920         0.319280
 C         3.667012         0.754858         0.314391
 C         3.164463        -0.642909         0.909647
 O         1.820263        -0.582183         1.024625
 H         5.113518        -2.082994        -1.091324
 H         4.231655        -1.473730        -2.355692
 H         5.467669        -0.622792        -1.726188
 H        -0.428463         0.443186         0.557151
 H        -0.240785         0.750073        -1.281406
 H        -0.299143        -0.912136        -0.334453
 H         2.294402         2.299958        -0.310569
 H         1.725319         1.592837         1.355517
 H         4.706601         1.273931         0.476043
 H         3.656294        -1.240019         1.743507
