19
Iteration:   773
 C         4.604786        -1.165764        -1.453512
 C         3.558725        -0.480032        -0.616516
 O         2.263581        -0.433467        -1.264247
 C         1.474660         0.165445        -0.089189
 C         0.030273         0.422531        -0.339972
 C         2.231976         1.434882         0.404034
 C         3.536230         0.722517         0.363168
 C         3.143688        -0.668457         0.832421
 O         1.807866        -0.783087         0.899836
 H         5.511475        -0.597774        -1.353675
 H         4.921073        -2.199361        -1.267033
 H         4.269132        -1.233629        -2.464588
 H        -0.767263         0.702455         0.442737
 H        -0.142549         1.139983        -1.217297
 H        -0.426078        -0.550519        -0.805532
 H         2.208866         2.391761        -0.237576
 H         2.005837         1.602052         1.470981
 H         4.355576         1.268464         0.949120
 H         3.644425        -0.990185         1.780077
