19
Iteration:  3005charge 0 multiplicity 1
 C         4.670549        -1.025399        -1.531941
 C         3.524194        -0.519735        -0.615754
 O         2.171589        -0.327346        -1.230491
 C         1.490665         0.198474        -0.166027
 C         0.047296         0.479214        -0.477931
 C         2.325514         1.403453         0.420387
 C         3.576079         0.574829         0.497553
 C         3.124871        -0.865641         0.879421
 O         1.718471        -0.757481         0.963628
 H         5.079404        -2.021347        -1.216055
 H         4.306738        -1.077484        -2.621721
 H         5.375048        -0.219956        -1.676295
 H        -0.387660         0.884570         0.485392
 H        -0.055288         1.324589        -1.163928
 H        -0.427485        -0.528295        -0.734832
 H         2.372348         2.323779        -0.117833
 H         1.908261         1.540652         1.364617
 H         4.598458         0.919778         0.798420
 H         3.558944        -1.488475         1.759802
