19
Iteration:  2698charge 0 multiplicity 1
 C         4.563715        -0.963977        -1.614366
 C         3.555553        -0.536480        -0.527019
 O         2.310154        -0.231366        -1.212456
 C         1.483197         0.189880        -0.194583
 C         0.088502         0.452826        -0.558677
 C         2.407893         1.384720         0.481938
 C         3.623441         0.501924         0.572193
 C         3.018422        -0.893023         0.879072
 O         1.617376        -0.774034         0.920529
 H         4.368573        -0.346318        -2.496422
 H         5.655623        -0.765938        -1.355827
 H         4.443894        -2.026624        -1.792197
 H        -0.530822         0.649330         0.352782
 H        -0.051337         1.493559        -1.000890
 H        -0.452817        -0.361514        -1.033079
 H         2.564634         2.348939        -0.018915
 H         2.035959         1.634358         1.484048
 H         4.574260         0.707470         1.136303
 H         3.345822        -1.633501         1.608178
