19
Iteration:  3721
 C         4.550088        -1.099904        -1.389281
 C         3.491923        -0.486871        -0.628084
 O         2.260010        -0.413733        -1.252132
 C         1.461388         0.223458        -0.113562
 C        -0.073091         0.200737        -0.255519
 C         2.340495         1.530373         0.131978
 C         3.662881         0.728534         0.401785
 C         3.164359        -0.688659         0.869829
 O         1.753818        -0.724595         0.961976
 H         5.102888        -1.988499        -0.969615
 H         4.319609        -1.515422        -2.405633
 H         5.496907        -0.440590        -1.607148
 H        -0.450509         0.576587         0.692436
 H        -0.339781         0.779119        -1.069218
 H        -0.451643        -0.785224        -0.161880
 H         2.231625         2.108297        -0.787917
 H         1.962480         2.046690         1.001978
 H         4.618524         1.074409         0.848400
 H         3.794062        -1.284342         1.569601
