19
Iteration:  1683
 C         4.601871        -1.067011        -1.506370
 C         3.475552        -0.483692        -0.587385
 O         2.275921        -0.072739        -1.248254
 C         1.525734         0.333606        -0.068666
 C         0.157176         0.720650        -0.659499
 C         2.389728         1.325472         0.804350
 C         3.639136         0.404133         0.657351
 C         3.015833        -1.025749         0.726733
 O         1.551771        -0.962458         0.727550
 H         4.818649        -2.118342        -1.218385
 H         4.443505        -1.115225        -2.558936
 H         5.518599        -0.458696        -1.411670
 H        -0.622103         0.886010         0.081457
 H         0.171734         1.665445        -1.234101
 H        -0.113524        -0.046154        -1.345579
 H         2.422000         2.284117         0.148982
 H         2.098008         1.550485         1.849576
 H         4.574286         0.644432         1.106487
 H         3.461107        -1.971790         1.189658
