19
Iteration:  4240charge 0 multiplicity 1
 C         4.571467        -1.019717        -1.544027
 C         3.452938        -0.555491        -0.551780
 O         2.163187        -0.560582        -1.135057
 C         1.448408         0.138529        -0.151913
 C         0.002059         0.195180        -0.391705
 C         2.271418         1.435379         0.144677
 C         3.599202         0.724869         0.270394
 C         3.208323        -0.558747         0.936594
 O         1.891796        -0.587716         1.120902
 H         5.466181        -0.570001        -1.073957
 H         4.442849        -2.154661        -1.485376
 H         4.558664        -0.718072        -2.552233
 H        -0.534376         0.583763         0.495286
 H        -0.155421         0.872484        -1.255472
 H        -0.365721        -0.862894        -0.544654
 H         2.290601         2.194126        -0.631019
 H         2.069998         1.801724         1.284214
 H         4.620300         1.027969         0.375642
 H         3.764828        -0.877181         1.750779
