19
Iteration:  4791charge 0 multiplicity 1
 C         4.442437        -1.267641        -1.429504
 C         3.562449        -0.471586        -0.608009
 O         2.282072        -0.421928        -1.137243
 C         1.477478         0.142306        -0.114156
 C        -0.009089         0.063853        -0.314050
 C         2.164942         1.514909         0.146950
 C         3.585018         0.859445         0.315855
 C         3.314095        -0.520589         0.915068
 O         1.807891        -0.613066         0.978170
 H         5.491064        -0.968368        -1.343427
 H         4.520508        -2.254976        -1.109140
 H         4.110738        -1.112603        -2.498909
 H        -0.420741         0.549927         0.626114
 H        -0.317347         0.477490        -1.325803
 H        -0.172600        -1.057067        -0.332055
 H         2.096362         2.327552        -0.602805
 H         1.872947         1.872703         1.120515
 H         4.538320         1.387482         0.365733
 H         4.079852        -1.255023         1.381145
