19
Iteration:  3320charge 0 multiplicity 1
 C         4.639311        -1.121651        -1.400618
 C         3.499575        -0.489328        -0.579154
 O         2.158968        -0.434630        -1.248943
 C         1.471248         0.167539        -0.151703
 C        -0.029856         0.365690        -0.303437
 C         2.299185         1.400131         0.301066
 C         3.604811         0.713161         0.286226
 C         3.215968        -0.684642         0.856407
 O         1.806106        -0.705619         0.944277
 H         5.534107        -0.778147        -0.835190
 H         4.545428        -2.251358        -1.443174
 H         4.598311        -0.709994        -2.377149
 H        -0.439756         0.723717         0.684801
 H        -0.225754         0.930548        -1.219531
 H        -0.705118        -0.521665        -0.478268
 H         2.082138         2.260752        -0.426642
 H         2.010374         1.668675         1.374808
 H         4.548138         1.212281         0.552467
 H         3.892335        -1.256836         1.608811
