19
Iteration:  4299charge 0 multiplicity 1
 C         4.504697        -1.240064        -1.315562
 C         3.505429        -0.392244        -0.593693
 O         2.193691        -0.366615        -1.248896
 C         1.433652         0.116315        -0.100575
 C        -0.019320         0.123888        -0.252322
 C         2.215881         1.425528         0.105374
 C         3.648821         0.859842         0.302102
 C         3.273271        -0.513471         0.851897
 O         1.880152        -0.730447         1.026875
 H         4.943867        -2.053273        -0.731092
 H         4.042500        -1.834065        -2.092464
 H         5.278701        -0.535602        -1.844901
 H        -0.362416         0.584966         0.643789
 H        -0.489402         0.548107        -1.094844
 H        -0.327589        -0.856747        -0.269161
 H         2.182866         1.975137        -0.856860
 H         1.946359         2.168861         0.781398
 H         4.563572         1.464974         0.442208
 H         3.977421        -1.214225         1.288837
