19
Iteration:  3296charge 0 multiplicity 1
 C         4.677122        -1.052019        -1.453773
 C         3.471032        -0.547326        -0.605080
 O         2.176575        -0.454157        -1.276104
 C         1.461653         0.238423        -0.109417
 C         0.013213         0.310810        -0.309525
 C         2.325204         1.444968         0.272621
 C         3.619829         0.655857         0.349813
 C         3.172467        -0.712276         0.846360
 O         1.746325        -0.667588         1.017031
 H         5.485347        -0.396157        -1.178645
 H         4.844228        -2.113995        -1.219697
 H         4.423292        -1.011437        -2.475551
 H        -0.407455         0.556592         0.695759
 H        -0.213707         0.894874        -1.259922
 H        -0.591181        -0.658257        -0.544290
 H         2.299822         2.307086        -0.456812
 H         1.972296         1.792515         1.340457
 H         4.549071         1.119992         0.531185
 H         3.668004        -1.358472         1.496698
