19
Iteration:  1470charge 0 multiplicity 1
 C         4.668498        -1.069788        -1.435730
 C         3.506589        -0.467325        -0.619158
 O         2.326810        -0.024133        -1.354661
 C         1.571447         0.336192        -0.235808
 C         0.168340         0.722513        -0.487574
 C         2.404231         1.237565         0.703164
 C         3.550952         0.304353         0.677627
 C         2.912876        -1.066090         0.756349
 O         1.542651        -0.829345         0.743152
 H         5.399761        -1.469179        -0.682257
 H         4.319327        -1.961333        -2.070677
 H         5.049939        -0.232278        -2.077544
 H        -0.162867         0.903347         0.566440
 H        -0.032253         1.692717        -1.004679
 H        -0.477916        -0.014396        -1.043227
 H         2.436586         2.191573         0.297236
 H         2.060279         1.131559         1.728265
 H         4.500247         0.586027         1.113692
 H         3.279480        -1.889996         1.312687
