19
Iteration:  1023
 C         4.559235        -1.016030        -1.433449
 C         3.448667        -0.503093        -0.536666
 O         2.255925        -0.153215        -1.303912
 C         1.532071         0.313355        -0.118098
 C         0.084076         0.443586        -0.513362
 C         2.414261         1.393949         0.510398
 C         3.633549         0.523236         0.520941
 C         3.052458        -0.948568         0.819419
 O         1.655665        -0.866596         0.842028
 H         4.659692        -0.328100        -2.278977
 H         5.512890        -1.228190        -0.771133
 H         4.405287        -2.090285        -1.783255
 H        -0.508101         0.892717         0.284170
 H        -0.162178         1.146959        -1.253279
 H        -0.238388        -0.576786        -0.816222
 H         2.445336         2.310535        -0.107733
 H         2.042785         1.663541         1.472297
 H         4.607928         0.940488         0.860686
 H         3.637053        -1.643200         1.465386
