19
Iteration:  2911charge 0 multiplicity 1
 C         4.634312        -1.089235        -1.332070
 C         3.431819        -0.503716        -0.656414
 O         2.269852        -0.198807        -1.338973
 C         1.471781         0.265437        -0.126637
 C        -0.014425         0.496015        -0.397329
 C         2.374262         1.384182         0.485160
 C         3.560805         0.563919         0.481844
 C         3.138853        -0.855778         0.797685
 O         1.743159        -0.856078         0.834543
 H         5.623709        -0.636793        -1.076268
 H         4.871271        -2.140111        -1.239961
 H         4.564104        -1.216630        -2.470637
 H        -0.486038         0.758502         0.548460
 H        -0.371852         1.368403        -1.019658
 H        -0.450662        -0.477136        -0.605594
 H         2.386593         2.362724        -0.151432
 H         1.899387         1.627308         1.541880
 H         4.535719         1.038315         0.857516
 H         3.732469        -1.688271         1.326555
