19
Iteration:  1823
 C         4.512116        -0.968413        -1.494628
 C         3.547745        -0.456845        -0.517571
 O         2.299971         0.067203        -1.266177
 C         1.543283         0.314541        -0.105688
 C         0.108380         0.538698        -0.595937
 C         2.477869         1.291867         0.530303
 C         3.644270         0.326518         0.778618
 C         2.947851        -1.131275         0.759004
 O         1.605189        -0.839579         0.766835
 H         3.809032        -1.049652        -2.441324
 H         5.403849        -0.321999        -1.710034
 H         4.985495        -1.983729        -1.232491
 H        -0.437869         0.886654         0.344845
 H        -0.002448         1.388208        -1.379657
 H        -0.223040        -0.502260        -0.888313
 H         2.536952         2.038387        -0.204470
 H         1.956430         1.806762         1.277858
 H         4.575242         0.448862         1.373320
 H         3.219165        -2.079539         1.276577
