19
Iteration:  4566charge 0 multiplicity 1
 C         4.603961        -1.103921        -1.458389
 C         3.514207        -0.505137        -0.633189
 O         2.228159        -0.596165        -1.198679
 C         1.444965         0.169845        -0.122982
 C        -0.035471         0.180996        -0.242016
 C         2.209345         1.451024         0.076564
 C         3.611692         0.800434         0.206202
 C         3.252392        -0.568035         0.946757
 O         1.835610        -0.625566         1.086090
 H         4.595574        -2.162267        -1.101811
 H         4.414003        -0.754974        -2.564681
 H         5.535675        -0.649290        -1.095747
 H        -0.603278         0.670480         0.572607
 H        -0.380253         0.780030        -1.107677
 H        -0.442005        -0.810082        -0.200067
 H         2.111585         2.145204        -0.681697
 H         1.981987         2.022843         0.995550
 H         4.403248         1.465696         0.628706
 H         3.838566        -1.021713         1.757140
