19
Iteration:  2578charge 0 multiplicity 1
 C         4.567713        -1.036362        -1.533741
 C         3.528831        -0.472529        -0.575806
 O         2.295578        -0.135624        -1.170012
 C         1.458659         0.166665        -0.113487
 C         0.099503         0.493256        -0.515321
 C         2.324258         1.376858         0.412094
 C         3.583667         0.518786         0.550893
 C         3.110929        -0.920765         0.839756
 O         1.671794        -0.887509         0.891382
 H         5.110613        -0.191495        -1.965014
 H         5.188908        -1.711538        -0.935295
 H         4.018004        -1.470905        -2.343298
 H        -0.501784         0.927133         0.287497
 H         0.090255         1.365024        -1.234283
 H        -0.342020        -0.418749        -0.865636
 H         2.534099         2.219292        -0.365700
 H         2.013402         2.036470         1.276730
 H         4.459700         0.957916         0.943802
 H         3.550502        -1.613208         1.566302
