19
Iteration:  3382
 C         4.496696        -1.152369        -1.543304
 C         3.531724        -0.520440        -0.624672
 O         2.224147        -0.392242        -1.191035
 C         1.459652         0.263437        -0.183661
 C         0.004894         0.108340        -0.399726
 C         2.346515         1.512472         0.324439
 C         3.646961         0.726578         0.336131
 C         3.172134        -0.664702         0.932300
 O         1.733472        -0.623122         1.076389
 H         5.220819        -1.849598        -1.026455
 H         4.069867        -1.642015        -2.433264
 H         5.349353        -0.565130        -2.014068
 H        -0.476119         0.636378         0.461374
 H        -0.500850         0.740692        -1.219350
 H         0.001676        -1.055087        -0.621167
 H         2.273340         2.352845        -0.363085
 H         2.083400         1.779732         1.406246
 H         4.688310         1.061375         0.513514
 H         3.745258        -1.239068         1.714247
