19
Iteration:  2687
 C         4.510795        -0.965861        -1.559880
 C         3.510322        -0.545638        -0.551334
 O         2.359756        -0.289840        -1.237854
 C         1.520193         0.205047        -0.108389
 C         0.078489         0.494738        -0.517011
 C         2.380445         1.382289         0.480130
 C         3.608324         0.533215         0.625792
 C         3.051054        -0.860358         0.851969
 O         1.609813        -0.819885         0.848003
 H         4.405658        -0.266545        -2.424974
 H         5.550833        -1.001548        -1.139038
 H         4.309653        -1.890433        -2.038207
 H        -0.329734         0.654884         0.515349
 H         0.179459         1.410193        -1.235070
 H        -0.449373        -0.212014        -1.160395
 H         2.370477         2.203347        -0.256609
 H         2.149880         1.658784         1.512841
 H         4.514498         1.066180         0.983444
 H         3.551579        -1.548797         1.503723
