19
Iteration:   466
 C         4.576204        -1.138690        -1.485702
 C         3.484130        -0.495172        -0.543392
 O         2.245269        -0.479654        -1.234579
 C         1.503503         0.119856        -0.149960
 C        -0.058714         0.015444        -0.312034
 C         2.317104         1.491281         0.209530
 C         3.643704         0.852406         0.199864
 C         3.149004        -0.571559         0.910260
 O         1.774896        -0.549530         1.116702
 H         4.865218        -2.183051        -1.199263
 H         4.192852        -0.915183        -2.480580
 H         5.481312        -0.590482        -1.343501
 H        -0.317287         0.552101         0.615668
 H        -0.404409         0.457850        -1.247414
 H        -0.208730        -1.058449        -0.177922
 H         2.109346         2.171539        -0.690378
 H         1.909685         1.852394         1.217335
 H         4.633353         1.293588         0.313929
 H         3.720934        -1.143802         1.615606
