19
Iteration:  3975
 C         4.557572        -1.221860        -1.404133
 C         3.463820        -0.386521        -0.627871
 O         2.188548        -0.264586        -1.195508
 C         1.446820         0.125411         0.006165
 C         0.024898         0.228995        -0.437730
 C         2.312399         1.446174         0.214653
 C         3.589376         0.766058         0.369427
 C         3.248072        -0.671296         0.813889
 O         1.817112        -0.803639         1.078365
 H         4.770662        -2.173370        -0.918862
 H         4.045857        -1.218246        -2.524709
 H         5.478588        -0.617785        -1.309072
 H        -0.714942         0.627176         0.200186
 H        -0.021094         0.856511        -1.338970
 H        -0.325620        -0.734990        -0.802119
 H         2.295996         1.954689        -0.772681
 H         2.003810         2.081561         1.013781
 H         4.461122         1.396124         0.476834
 H         3.884249        -1.275075         1.326319
