19
Iteration:  4574charge 0 multiplicity 1
 C         4.590238        -1.147527        -1.408717
 C         3.514626        -0.519753        -0.591219
 O         2.205328        -0.492722        -1.233690
 C         1.450901         0.150528        -0.063618
 C        -0.036464         0.159493        -0.214483
 C         2.221581         1.417497         0.062896
 C         3.577291         0.839464         0.265332
 C         3.218555        -0.499716         0.916652
 O         1.855187        -0.640593         1.041067
 H         4.798427        -2.197550        -1.269364
 H         4.405230        -1.119752        -2.450711
 H         5.647346        -0.743621        -1.341918
 H        -0.425311         0.701396         0.604060
 H        -0.241130         0.625987        -1.151575
 H        -0.301523        -0.886489        -0.275637
 H         2.116894         1.962529        -0.947658
 H         1.935501         1.946136         1.002232
 H         4.474708         1.353086         0.538790
 H         3.863547        -1.058746         1.454010
