19
Iteration:  1866charge 0 multiplicity 1
 C         4.640101        -0.998499        -1.477583
 C         3.518777        -0.534614        -0.589939
 O         2.271282        -0.067467        -1.281374
 C         1.482251         0.308261        -0.158048
 C         0.075590         0.642681        -0.531794
 C         2.391239         1.268592         0.681701
 C         3.716793         0.402216         0.634975
 C         2.977399        -1.011892         0.745461
 O         1.562495        -0.857806         0.779391
 H         4.157218        -1.048398        -2.523838
 H         5.519975        -0.364893        -1.464523
 H         4.922144        -2.035725        -1.134317
 H        -0.697048         0.907434         0.256979
 H         0.207894         1.502297        -1.308857
 H        -0.222897        -0.256418        -1.184623
 H         2.448049         2.242755         0.273890
 H         2.182994         1.328336         1.748179
 H         4.781557         0.543971         0.937930
 H         3.410108        -1.686943         1.445194
