19
Iteration:   460charge 0 multiplicity 1
 C         4.535171        -1.127361        -1.466480
 C         3.516519        -0.490501        -0.592288
 O         2.235962        -0.506732        -1.225665
 C         1.486420         0.154273        -0.135724
 C         0.035694         0.020524        -0.329433
 C         2.264091         1.451997         0.207079
 C         3.590568         0.835602         0.187880
 C         3.234027        -0.567645         0.903968
 O         1.771710        -0.528363         1.124952
 H         4.527836        -2.187212        -1.181690
 H         4.278413        -0.876573        -2.523595
 H         5.536048        -0.653503        -1.174383
 H        -0.378871         0.647845         0.490460
 H        -0.408366         0.574357        -1.174144
 H        -0.265484        -1.040360        -0.263327
 H         2.118106         2.214471        -0.541107
 H         1.936868         1.629330         1.200940
 H         4.539687         1.364737         0.434014
 H         3.729679        -1.182351         1.722142
