19
Iteration:  1472
 C         4.671138        -1.073962        -1.425438
 C         3.509602        -0.475525        -0.613310
 O         2.317508        -0.005530        -1.364769
 C         1.558385         0.339838        -0.227482
 C         0.157954         0.716045        -0.485335
 C         2.408230         1.234349         0.704083
 C         3.576162         0.299978         0.673320
 C         2.898075        -1.076298         0.751031
 O         1.550410        -0.823490         0.736144
 H         5.438890        -1.399427        -0.651549
 H         4.344677        -1.906531        -1.995840
 H         5.048462        -0.292512        -2.109187
 H        -0.176485         0.875159         0.563832
 H        -0.024506         1.650140        -0.986451
 H        -0.459401        -0.062802        -1.067684
 H         2.421947         2.281527         0.230781
 H         2.103211         1.177707         1.793411
 H         4.517275         0.579222         1.068639
 H         3.223360        -1.959530         1.351209
