19
Iteration:  2173charge 0 multiplicity 1
 C         4.705645        -1.080417        -1.437916
 C         3.527775        -0.511018        -0.628243
 O         2.313032        -0.050706        -1.350128
 C         1.511894         0.367164        -0.133563
 C         0.004755         0.534692        -0.430806
 C         2.412616         1.340565         0.600426
 C         3.670871         0.346323         0.698336
 C         2.951301        -1.012345         0.737541
 O         1.574329        -0.763137         0.758758
 H         4.638163        -0.554866        -2.424636
 H         5.734524        -0.982854        -1.042146
 H         4.658354        -2.179843        -1.715097
 H        -0.523250         0.742618         0.536168
 H        -0.241236         1.410876        -1.130531
 H        -0.449409        -0.400251        -0.911799
 H         2.650809         2.317063         0.018895
 H         1.780778         1.452674         1.593014
 H         4.650565         0.576943         1.146410
 H         3.166215        -1.925042         1.191064
