19
Iteration:  4335
 C         4.643509        -1.210601        -1.465080
 C         3.504266        -0.551801        -0.645771
 O         2.143430        -0.511960        -1.149126
 C         1.486192         0.166329        -0.108340
 C        -0.050103         0.168256        -0.345732
 C         2.232109         1.460509         0.235074
 C         3.616539         0.828422         0.224229
 C         3.238547        -0.451973         0.846779
 O         1.835423        -0.620412         1.104540
 H         5.114713        -2.023178        -0.930688
 H         4.217988        -1.392150        -2.441661
 H         5.506386        -0.531404        -1.635670
 H        -0.541310         0.559170         0.564365
 H        -0.398141         0.689937        -1.248253
 H        -0.217874        -0.970306        -0.350900
 H         2.009461         2.086647        -0.633647
 H         1.948920         1.699699         1.196005
 H         4.494633         1.411422         0.486682
 H         3.834476        -1.070922         1.495421
