19
Iteration:  2997
 C         4.633613        -1.006604        -1.619285
 C         3.465945        -0.485074        -0.624351
 O         2.283283        -0.367273        -1.217062
 C         1.505451         0.244213        -0.147640
 C         0.053307         0.433490        -0.462844
 C         2.318827         1.422237         0.442882
 C         3.595921         0.549571         0.512019
 C         3.121350        -0.851085         0.880080
 O         1.674929        -0.779536         0.955337
 H         5.095208        -1.877157        -1.116498
 H         4.036602        -1.283758        -2.408042
 H         5.435930        -0.299591        -1.549123
 H        -0.416123         0.908709         0.415511
 H         0.102030         1.270229        -1.221578
 H        -0.642570        -0.374627        -0.820286
 H         2.307880         2.349537        -0.239466
 H         1.796994         1.751499         1.408597
 H         4.683568         0.783332         0.865529
 H         3.619075        -1.319949         1.757440
