19
Iteration:  1773
 C         4.668075        -1.056729        -1.370105
 C         3.544863        -0.491156        -0.646892
 O         2.279991        -0.125968        -1.322907
 C         1.504280         0.312227        -0.227125
 C         0.105327         0.755182        -0.426320
 C         2.365363         1.180517         0.709994
 C         3.565601         0.391449         0.617441
 C         3.017784        -0.990003         0.677664
 O         1.577316        -0.838139         0.717199
 H         4.470656        -2.003221        -1.745263
 H         5.090894        -0.383134        -2.135222
 H         5.370438        -1.144236        -0.583432
 H        -0.201773         1.066283         0.542469
 H         0.161677         1.632532        -0.966818
 H        -0.515405         0.014096        -0.934504
 H         2.395483         2.344546         0.486547
 H         1.876742         0.979431         1.735284
 H         4.564980         0.782805         0.904721
 H         3.490506        -1.835070         1.032598
