19
Iteration:  4475
 C         4.510715        -1.183460        -1.392663
 C         3.553261        -0.474960        -0.631907
 O         2.250586        -0.487599        -1.197699
 C         1.472317         0.155656        -0.198867
 C        -0.001119         0.004756        -0.226804
 C         2.183114         1.510452         0.160314
 C         3.546106         0.820955         0.221807
 C         3.245213        -0.459115         0.879913
 O         1.873175        -0.583990         1.067742
 H         3.958946        -1.843898        -2.065367
 H         5.347412        -0.746119        -1.901927
 H         4.956926        -2.175620        -0.924654
 H        -0.331349         0.523157         0.638797
 H        -0.311782         0.604988        -1.033108
 H        -0.290846        -1.054693        -0.117829
 H         2.107783         2.330371        -0.689718
 H         1.852100         1.920444         1.122275
 H         4.496696         1.335933         0.238550
 H         3.807060        -0.985114         1.748096
