19
Iteration:  2806charge 0 multiplicity 1
 C         4.536885        -1.053360        -1.447795
 C         3.467129        -0.495323        -0.602749
 O         2.269285        -0.133996        -1.230915
 C         1.492851         0.223293        -0.084622
 C         0.032136         0.440689        -0.497808
 C         2.357814         1.378972         0.464846
 C         3.662674         0.521629         0.591538
 C         3.117466        -0.892748         0.832255
 O         1.677387        -0.821817         0.789818
 H         4.443531        -0.609022        -2.405407
 H         5.444328        -0.839631        -0.837205
 H         4.405803        -2.112272        -1.705348
 H        -0.435467         0.865974         0.410015
 H         0.265505         1.194900        -1.323888
 H        -0.463795        -0.433944        -0.924901
 H         2.494264         2.069731        -0.295481
 H         2.154388         1.823522         1.375080
 H         4.710051         0.884023         0.941838
 H         3.510360        -1.779096         1.430014
