19
Iteration:  2720
 C         4.573493        -0.987314        -1.489425
 C         3.443991        -0.525866        -0.605102
 O         2.245430        -0.204402        -1.248107
 C         1.472175         0.329642        -0.089897
 C         0.067322         0.424679        -0.547222
 C         2.443399         1.372457         0.491190
 C         3.643325         0.430137         0.649952
 C         3.083563        -0.913997         0.805276
 O         1.653634        -0.769581         0.864147
 H         4.431180        -0.673341        -2.534166
 H         5.594766        -0.529497        -1.235878
 H         4.752995        -2.069657        -1.485497
 H        -0.763245         0.475485         0.184432
 H        -0.222292         1.340671        -1.148543
 H        -0.132702        -0.517940        -1.033726
 H         2.588222         2.193662        -0.221534
 H         2.240785         1.857206         1.439189
 H         4.619209         0.967094         0.858152
 H         3.457054        -1.769554         1.422634
