19
Iteration:  1387
 C         4.657900        -0.962947        -1.463096
 C         3.497390        -0.528265        -0.606838
 O         2.330439        -0.044053        -1.282993
 C         1.548376         0.441545        -0.222101
 C         0.026727         0.582267        -0.535399
 C         2.481744         1.281572         0.757751
 C         3.670833         0.249608         0.692551
 C         2.946710        -1.025466         0.745446
 O         1.496118        -0.790449         0.667265
 H         4.586197        -2.079469        -1.349768
 H         4.604066        -0.757997        -2.476149
 H         5.676254        -0.885706        -1.127855
 H        -0.533469         0.792678         0.362540
 H        -0.141782         1.297463        -1.242555
 H        -0.366993        -0.427328        -0.817997
 H         2.699027         2.417578         0.584766
 H         2.147698         1.285628         1.824898
 H         4.698072         0.374095         0.926169
 H         3.127480        -1.867418         1.410322
