19
Iteration:  4539
 C         4.635532        -0.978250        -1.489809
 C         3.429292        -0.605155        -0.564531
 O         2.100371        -0.649085        -1.109415
 C         1.445173         0.111431        -0.090916
 C         0.011853         0.182973        -0.337597
 C         2.249699         1.397894         0.070301
 C         3.635189         0.778676         0.230111
 C         3.261807        -0.486389         0.913124
 O         1.888409        -0.570441         1.123475
 H         4.353696        -1.920845        -1.923162
 H         4.703809        -0.187299        -2.138587
 H         5.525368        -0.997481        -0.809711
 H        -0.619304         0.619981         0.416273
 H        -0.132420         0.820012        -1.208443
 H        -0.532030        -0.767707        -0.522469
 H         2.138092         2.146897        -0.842441
 H         1.982845         2.074853         0.890725
 H         4.539483         1.380330         0.301644
 H         3.882099        -1.231534         1.531758
