19
Iteration:  4905
 C         4.491243        -1.204812        -1.375938
 C         3.474434        -0.443885        -0.589080
 O         2.238872        -0.424262        -1.158739
 C         1.443984         0.155071        -0.108925
 C        -0.053038        -0.013581        -0.308843
 C         2.245416         1.529497         0.057035
 C         3.644407         0.811886         0.235219
 C         3.260248        -0.480339         0.889859
 O         1.890436        -0.649665         1.075850
 H         5.145375        -1.714009        -0.679773
 H         3.970633        -1.988175        -1.961404
 H         5.056409        -0.530251        -1.915038
 H        -0.507679         0.478181         0.512598
 H        -0.497369         0.405996        -1.152709
 H        -0.470863        -1.018230        -0.345089
 H         2.228989         2.077784        -0.955963
 H         2.005872         2.124397         1.046819
 H         4.569391         1.458280         0.425082
 H         4.038851        -1.103757         1.441995
