19
Iteration:   104charge 0 multiplicity 1
 C         4.608332        -1.081116        -1.356995
 C         3.504949        -0.376936        -0.620284
 O         2.106173        -0.588530        -1.112360
 C         1.455173         0.041587         0.001176
 C        -0.123749         0.032287        -0.142609
 C         2.168757         1.439123        -0.141769
 C         3.528448         0.937295         0.067244
 C         3.391245        -0.352238         0.884610
 O         1.990148        -0.729753         1.139496
 H         4.909734        -0.916704        -2.440843
 H         5.541444        -0.984355        -0.666560
 H         4.389174        -2.215066        -1.253907
 H        -0.638418         0.654551         0.585548
 H        -0.376708         0.362243        -1.189457
 H        -0.498841        -0.983720        -0.018548
 H         1.967539         1.630129        -1.218068
 H         2.021046         2.339883         0.515939
 H         4.334188         1.662317         0.077937
 H         4.098759        -0.890271         1.564416
