19
Iteration:    38
 C         4.454710        -1.098224        -1.536103
 C         3.587974        -0.511684        -0.480684
 O         2.233996        -0.597866        -1.024652
 C         1.409621         0.110891        -0.080316
 C        -0.094395        -0.171571        -0.164103
 C         2.210901         1.531819        -0.217237
 C         3.535006         0.905025         0.169397
 C         3.337221        -0.382956         0.921869
 O         1.966016        -0.497621         1.126761
 H         5.305502        -0.403624        -1.795057
 H         4.884645        -2.125184        -1.192181
 H         3.797962        -1.319677        -2.460851
 H        -0.500928         0.139573         0.810278
 H        -0.661286         0.358538        -0.934573
 H        -0.271739        -1.251033        -0.215726
 H         2.235504         1.801868        -1.308014
 H         1.945498         2.239943         0.571592
 H         4.460271         1.450940         0.471123
 H         4.004208        -0.710002         1.755775
