19
Iteration:  1182
 C         4.601274        -1.037210        -1.402923
 C         3.518053        -0.483150        -0.632496
 O         2.341687        -0.024621        -1.307891
 C         1.512422         0.321176        -0.091493
 C         0.062840         0.538582        -0.444249
 C         2.358130         1.371709         0.566945
 C         3.610353         0.339713         0.671537
 C         3.015814        -0.995588         0.723026
 O         1.589959        -0.859355         0.746440
 H         5.554907        -0.976696        -0.869818
 H         4.524794        -2.085801        -1.765538
 H         4.572843        -0.468904        -2.356917
 H        -0.630180         0.703101         0.418172
 H         0.027285         1.322612        -1.178677
 H        -0.294666        -0.443644        -0.923985
 H         2.573359         2.119483        -0.156231
 H         2.187051         1.717089         1.550889
 H         4.613284         0.686609         1.004086
 H         3.496650        -1.840590         1.248291
