19
Iteration:  1747charge 0 multiplicity 1
 C         4.662151        -1.007990        -1.348968
 C         3.557170        -0.515846        -0.569490
 O         2.259737         0.033591        -1.311744
 C         1.453100         0.310724        -0.059590
 C         0.069845         0.685892        -0.432002
 C         2.461442         1.310350         0.566150
 C         3.585201         0.312818         0.642007
 C         2.973539        -1.082243         0.709868
 O         1.586984        -0.924406         0.638255
 H         4.611893        -2.180074        -1.442843
 H         4.581534        -0.557392        -2.356228
 H         5.644666        -0.703210        -0.851874
 H        -0.540686         0.898520         0.473430
 H         0.189861         1.652002        -1.012606
 H        -0.306870        -0.079779        -1.104500
 H         2.684439         2.001317        -0.213936
 H         2.262711         1.796522         1.477941
 H         4.441695         0.554542         1.230738
 H         3.408389        -2.045807         1.146904
