19
Iteration:  3415
 C         4.547614        -1.095470        -1.456514
 C         3.456241        -0.476844        -0.595033
 O         2.170029        -0.398467        -1.204499
 C         1.433075         0.226687        -0.097832
 C         0.018604         0.243605        -0.392086
 C         2.288237         1.455456         0.176102
 C         3.666769         0.702706         0.379310
 C         3.263999        -0.693617         0.879947
 O         1.821905        -0.732235         1.085195
 H         4.973877        -1.843853        -0.744739
 H         4.008708        -1.472271        -2.348654
 H         5.225599        -0.272122        -1.828777
 H        -0.639182         0.482293         0.486956
 H        -0.155268         0.857699        -1.319664
 H        -0.526076        -0.731837        -0.665820
 H         2.363883         2.014151        -0.767022
 H         2.069314         2.184063         1.016705
 H         4.673764         1.200726         0.377002
 H         3.725524        -1.430932         1.661720
