19
Iteration:  3922
 C         4.566704        -1.004083        -1.550727
 C         3.556020        -0.524993        -0.520410
 O         2.225351        -0.435391        -1.220274
 C         1.488382         0.149033        -0.212294
 C         0.004718         0.268805        -0.339154
 C         2.325209         1.423647         0.176537
 C         3.614956         0.629179         0.417833
 C         3.174718        -0.701269         0.976010
 O         1.708838        -0.611708         1.026859
 H         5.470251        -1.240351        -1.013751
 H         4.222163        -1.903831        -2.224722
 H         4.868690        -0.188524        -2.216898
 H        -0.318537         0.680746         0.543847
 H        -0.480571         0.902396        -1.083389
 H        -0.331165        -0.707292        -0.645554
 H         2.325087         2.149532        -0.575355
 H         1.959873         1.786947         1.124687
 H         4.540600         0.921860         0.857705
 H         3.711077        -1.284436         1.635241
