19
Iteration:  4399
 C         4.576078        -1.052784        -1.512442
 C         3.543539        -0.528643        -0.578869
 O         2.249229        -0.585807        -1.160256
 C         1.437710         0.104767        -0.140350
 C        -0.074839         0.151644        -0.285440
 C         2.264994         1.452781         0.091023
 C         3.550412         0.731389         0.209419
 C         3.257023        -0.512318         1.007374
 O         1.828760        -0.549770         1.081084
 H         4.326718        -2.106434        -1.836121
 H         4.570375        -0.435790        -2.434600
 H         5.749634        -1.114073        -1.145750
 H        -0.453115         0.574201         0.629013
 H        -0.358953         0.797490        -1.083548
 H        -0.501343        -0.867531        -0.213097
 H         2.115107         2.160952        -0.779086
 H         2.027974         2.075695         0.915463
 H         4.491841         1.173031         0.536782
 H         3.811348        -1.005307         1.871083
