19
Iteration:   809charge 0 multiplicity 1
 C         4.602308        -0.999722        -1.406789
 C         3.467412        -0.450942        -0.599126
 O         2.231001        -0.300166        -1.264844
 C         1.441113         0.203651        -0.067130
 C         0.014321         0.283762        -0.370565
 C         2.401372         1.399221         0.208246
 C         3.609586         0.594472         0.489203
 C         3.095270        -0.856482         0.804771
 O         1.755983        -0.699890         0.986573
 H         4.805127        -0.216349        -2.149848
 H         5.405003        -1.124092        -0.743281
 H         4.299413        -1.907227        -2.012983
 H        -0.488560         0.657015         0.535831
 H        -0.048778         0.984321        -1.186555
 H        -0.319773        -0.749791        -0.691793
 H         2.571883         2.009116        -0.697699
 H         2.044340         2.147634         1.068456
 H         4.507733         0.959264         0.873640
 H         3.536625        -1.598836         1.432486
