19
Iteration:  3342
 C         4.564679        -1.168284        -1.437780
 C         3.489410        -0.404672        -0.628355
 O         2.201334        -0.348022        -1.201529
 C         1.478479         0.136458        -0.052831
 C         0.029574         0.329624        -0.340581
 C         2.292450         1.465482         0.177457
 C         3.581620         0.742271         0.409574
 C         3.221139        -0.695658         0.832660
 O         1.815377        -0.805984         1.017535
 H         5.314888        -1.238236        -0.662561
 H         4.022243        -2.073804        -1.818909
 H         4.893322        -0.625827        -2.283295
 H        -0.617836         0.695588         0.514394
 H        -0.223793         0.815589        -1.274342
 H        -0.544618        -0.609444        -0.567825
 H         2.255739         1.971855        -0.866153
 H         1.843916         2.119646         0.993807
 H         4.585007         1.160967         0.652966
 H         4.002791        -1.367288         1.417023
