19
Iteration:  4694
 C         4.619017        -0.970290        -1.469798
 C         3.583914        -0.613726        -0.523643
 O         2.138324        -0.590855        -1.149236
 C         1.467195         0.150947        -0.165797
 C        -0.058750         0.215782        -0.277698
 C         2.280966         1.412626        -0.007492
 C         3.600162         0.791993         0.251562
 C         3.226638        -0.627349         0.932076
 O         1.775577        -0.593729         1.147759
 H         5.556746        -1.405319        -1.170807
 H         4.288515        -1.739362        -2.209799
 H         4.853670        -0.014956        -2.042322
 H        -0.218317         0.629146         0.730717
 H        -0.397691         0.852850        -1.119924
 H        -0.410102        -0.804698        -0.448243
 H         2.244388         1.958202        -1.097689
 H         1.946756         2.035174         0.912624
 H         4.603511         1.246879         0.500143
 H         3.959800        -0.884441         1.785929
