19
Iteration:  2295charge 0 multiplicity 1
 C         4.540120        -1.059617        -1.508896
 C         3.546547        -0.460255        -0.524874
 O         2.357181        -0.055960        -1.251778
 C         1.512129         0.298134        -0.161088
 C         0.041612         0.516324        -0.533769
 C         2.452945         1.300844         0.518861
 C         3.629776         0.470785         0.724281
 C         2.988808        -0.993452         0.786190
 O         1.581729        -0.885713         0.795100
 H         5.543701        -1.203947        -1.193453
 H         3.979048        -1.860455        -2.124517
 H         4.784787        -0.353852        -2.313759
 H        -0.417465         0.831721         0.431588
 H        -0.201272         1.375957        -1.234669
 H        -0.310197        -0.459192        -0.840176
 H         2.731738         2.185245        -0.201057
 H         2.099353         1.880549         1.452408
 H         4.512414         0.934100         1.109100
 H         3.394062        -1.889941         1.289907
