19
Iteration:   160
 C         4.530313        -1.100370        -1.431577
 C         3.480269        -0.484790        -0.605548
 O         2.150776        -0.591845        -1.081523
 C         1.456203         0.106580        -0.033362
 C        -0.045997        -0.206495        -0.259827
 C         2.276699         1.556345        -0.066460
 C         3.587123         0.852985         0.118520
 C         3.279715        -0.369649         0.876122
 O         1.921985        -0.468803         1.211210
 H         4.033608        -1.598335        -2.353946
 H         5.187704        -0.301369        -1.923409
 H         5.208848        -1.853979        -0.906469
 H        -0.813658         0.197765         0.406920
 H        -0.280806         0.170931        -1.293980
 H        -0.238333        -1.290000        -0.323624
 H         2.095411         2.135010        -0.960769
 H         2.022300         2.067625         0.938504
 H         4.584613         1.177789         0.273859
 H         3.950775        -0.735175         1.585760
