19
Iteration:  3515charge 0 multiplicity 1
 C         4.482667        -1.189653        -1.469053
 C         3.474047        -0.427477        -0.583798
 O         2.185392        -0.302873        -1.187087
 C         1.486297         0.201624        -0.049048
 C         0.023450         0.186502        -0.470397
 C         2.346491         1.486782         0.203724
 C         3.658867         0.716316         0.395392
 C         3.221953        -0.714426         0.856183
 O         1.807641        -0.726140         1.058985
 H         5.513432        -0.845800        -1.329272
 H         4.494317        -2.230309        -1.197324
 H         4.132179        -0.933144        -2.372531
 H        -0.632039         0.667376         0.352553
 H        -0.164856         0.804563        -1.359816
 H        -0.340093        -0.883557        -0.677161
 H         2.275313         2.135127        -0.698138
 H         1.897643         2.036601         1.033642
 H         4.529267         1.109715         0.870743
 H         3.768382        -1.261170         1.514429
