19
Iteration:  1110
 C         4.618446        -1.022308        -1.437484
 C         3.496249        -0.371242        -0.601211
 O         2.248223        -0.212323        -1.248607
 C         1.440983         0.205334        -0.066237
 C         0.030679         0.684226        -0.621137
 C         2.360375         1.304381         0.537012
 C         3.598712         0.478847         0.630272
 C         3.112672        -0.955167         0.767803
 O         1.686035        -0.944669         0.887234
 H         4.386036        -2.028801        -1.770262
 H         4.854840        -0.405898        -2.406977
 H         5.652220        -0.944408        -1.029037
 H        -0.598119         0.926947         0.243219
 H         0.333272         1.577305        -1.128683
 H        -0.570981         0.022826        -1.279683
 H         2.516497         2.168658        -0.238327
 H         1.886354         1.651163         1.552190
 H         4.685080         0.669422         0.830313
 H         3.686158        -1.773803         1.182346
