19
Iteration:  1299
 C         4.632118        -0.958853        -1.530380
 C         3.495398        -0.481360        -0.617585
 O         2.312914        -0.078012        -1.260183
 C         1.515120         0.417328        -0.133423
 C         0.124794         0.589561        -0.589677
 C         2.467010         1.287259         0.655833
 C         3.626464         0.271717         0.638174
 C         2.919300        -1.081144         0.764615
 O         1.528992        -0.821235         0.846366
 H         4.429055        -0.681702        -2.621248
 H         5.490539        -0.394680        -1.277732
 H         4.774402        -2.006765        -1.214989
 H        -0.523365         0.490842         0.274182
 H        -0.022236         1.478812        -1.126761
 H        -0.045614        -0.292957        -1.226688
 H         2.708104         2.204095         0.045683
 H         2.204464         1.494090         1.697221
 H         4.538815         0.708893         1.128429
 H         3.288308        -1.897199         1.365197
