19
Iteration:  1144
 C         4.570531        -0.924516        -1.526771
 C         3.487337        -0.480762        -0.549562
 O         2.341456        -0.195316        -1.286666
 C         1.493063         0.317796        -0.096692
 C         0.135421         0.472589        -0.506241
 C         2.473116         1.350197         0.565566
 C         3.605479         0.377540         0.646681
 C         2.985766        -0.952092         0.832301
 O         1.546154        -0.809823         0.765118
 H         5.156897        -1.871972        -1.295538
 H         4.000218        -1.019819        -2.496383
 H         5.369917        -0.117925        -1.595465
 H        -0.470140         0.635543         0.361639
 H         0.049499         1.421928        -1.068459
 H        -0.131916        -0.318375        -1.157387
 H         2.454224         2.274072        -0.087107
 H         2.041778         1.638808         1.578204
 H         4.652312         0.464306         0.932956
 H         3.345636        -1.707454         1.463099
