19
Iteration:  1364
 C         4.601390        -1.099673        -1.355007
 C         3.492436        -0.484945        -0.592647
 O         2.357955         0.061429        -1.289301
 C         1.506368         0.273269        -0.116347
 C         0.121121         0.661100        -0.428787
 C         2.385482         1.289390         0.625281
 C         3.593429         0.374171         0.668968
 C         2.978410        -1.042200         0.652563
 O         1.573519        -0.908507         0.629598
 H         4.518102        -2.152497        -1.705527
 H         4.680963        -0.473261        -2.165002
 H         5.565751        -1.097977        -0.830274
 H        -0.483403         0.847444         0.454266
 H         0.195459         1.538160        -1.025967
 H        -0.459381        -0.142802        -0.926748
 H         2.730060         2.200027        -0.032106
 H         2.197379         1.739621         1.648056
 H         4.447126         0.660009         1.297513
 H         3.238966        -1.968784         1.056855
