19
Iteration:  1999charge 0 multiplicity 1
 C         4.492651        -1.063162        -1.600005
 C         3.564573        -0.426285        -0.564080
 O         2.376080        -0.151455        -1.270759
 C         1.594536         0.280161        -0.175622
 C         0.163462         0.740350        -0.560589
 C         2.283735         1.236169         0.735553
 C         3.606126         0.377431         0.729884
 C         2.993753        -0.950604         0.809809
 O         1.602182        -0.859328         0.735323
 H         4.467241        -2.154537        -1.568960
 H         4.219791        -0.796713        -2.638634
 H         5.566254        -1.002196        -1.379958
 H        -0.309804         1.182620         0.405500
 H         0.207613         1.596372        -1.283810
 H        -0.409805        -0.141907        -1.173125
 H         2.464413         2.148455         0.154955
 H         1.519290         1.358697         1.516872
 H         4.481148         0.691890         1.252706
 H         3.441505        -1.790867         1.455257
