19
Iteration:   477charge 0 multiplicity 1
 C         4.624028        -1.099984        -1.437336
 C         3.514907        -0.514537        -0.557830
 O         2.209226        -0.428167        -1.179790
 C         1.411208         0.162478        -0.155349
 C        -0.086795         0.017779        -0.252970
 C         2.319410         1.537322         0.095350
 C         3.678344         0.764648         0.282199
 C         3.190704        -0.572784         0.930689
 O         1.797411        -0.619205         1.044316
 H         5.002908        -2.142235        -1.325910
 H         4.165178        -1.274544        -2.418125
 H         5.401998        -0.403915        -1.626910
 H        -0.703837         0.481938         0.543318
 H        -0.535960         0.321531        -1.211714
 H        -0.357043        -1.050985        -0.215486
 H         2.275839         2.268486        -0.795869
 H         2.064711         2.206973         0.975829
 H         4.683217         1.209916         0.390585
 H         3.760630        -1.146416         1.679256
