19
Iteration:   596charge 0 multiplicity 1
 C         4.537684        -1.161075        -1.474272
 C         3.551259        -0.491979        -0.597849
 O         2.232918        -0.344579        -1.213147
 C         1.469763         0.183315        -0.098445
 C        -0.003298         0.043748        -0.306170
 C         2.331719         1.553540         0.173063
 C         3.571316         0.768363         0.398435
 C         3.179419        -0.641105         0.912557
 O         1.773758        -0.683918         0.982243
 H         4.787386        -0.524215        -2.303310
 H         5.510373        -1.151563        -1.048825
 H         4.210993        -2.053622        -1.895284
 H        -0.576010         0.282131         0.614010
 H        -0.309848         0.736940        -1.185327
 H        -0.227005        -0.993539        -0.599931
 H         2.354269         2.185438        -0.746353
 H         2.102256         2.220512         1.004671
 H         4.492468         1.312893         0.739455
 H         3.578305        -1.365848         1.708480
