19
Iteration:  1578charge 0 multiplicity 1
 C         4.515494        -0.951734        -1.455245
 C         3.444849        -0.477344        -0.622259
 O         2.311706        -0.029082        -1.221202
 C         1.507847         0.259714        -0.040505
 C         0.226236         0.832286        -0.661052
 C         2.400421         1.204074         0.700229
 C         3.608940         0.337957         0.698408
 C         2.987169        -1.114169         0.694312
 O         1.588917        -0.929265         0.738591
 H         5.483228        -0.663959        -0.995156
 H         4.565214        -2.113904        -1.303284
 H         4.629905        -0.664529        -2.520573
 H        -0.478308         1.190716         0.121179
 H         0.580318         1.648093        -1.276285
 H        -0.302074         0.059689        -1.306714
 H         2.667990         1.936666        -0.013907
 H         1.986180         1.715369         1.567015
 H         4.452019         0.503689         1.318422
 H         3.389465        -2.121699         1.039228
