19
Iteration:  2461charge 0 multiplicity 1
 C         4.665894        -1.141322        -1.416518
 C         3.514231        -0.489127        -0.688999
 O         2.248817        -0.088983        -1.295651
 C         1.496906         0.239786        -0.185173
 C        -0.026425         0.536262        -0.440480
 C         2.317407         1.307640         0.586095
 C         3.633029         0.502547         0.523042
 C         3.083377        -0.836168         0.838937
 O         1.692191        -0.868715         0.790431
 H         4.390319        -1.478273        -2.432796
 H         5.557219        -0.392315        -1.349948
 H         4.851309        -2.051575        -0.854103
 H        -0.408932         0.964872         0.468753
 H        -0.008796         1.377098        -1.141912
 H        -0.494549        -0.379439        -0.722497
 H         2.481320         2.306769         0.109758
 H         1.878317         1.532743         1.566954
 H         4.615541         0.798242         0.894142
 H         3.549027        -1.541894         1.606098
