19
Iteration:  1084charge 0 multiplicity 1
 C         4.590002        -1.072158        -1.441561
 C         3.490304        -0.495860        -0.580886
 O         2.285322        -0.179333        -1.268016
 C         1.534121         0.269464        -0.168154
 C         0.115825         0.516385        -0.449903
 C         2.312122         1.315688         0.568844
 C         3.583703         0.559220         0.558309
 C         3.063786        -0.895378         0.827389
 O         1.645903        -0.840943         0.713158
 H         4.272226        -1.665770        -2.320101
 H         5.265902        -0.278713        -1.767746
 H         5.217421        -1.714927        -0.819435
 H        -0.202535         0.828640         0.579204
 H         0.105231         1.411812        -1.137049
 H        -0.592541        -0.272994        -0.781078
 H         2.357379         2.335730         0.035630
 H         1.994542         1.389559         1.695748
 H         4.516702         0.898531         0.933166
 H         3.566869        -1.728673         1.356590
