19
Iteration:  4980charge 0 multiplicity 1
 C         4.582877        -1.110693        -1.432526
 C         3.485901        -0.477045        -0.599371
 O         2.224867        -0.564974        -1.140088
 C         1.504476         0.034697        -0.072488
 C         0.038488         0.248801        -0.279324
 C         2.216286         1.457472         0.018553
 C         3.522029         0.853850         0.253648
 C         3.215107        -0.552348         0.904557
 O         1.859363        -0.662283         1.072719
 H         5.519022        -0.599946        -1.140744
 H         4.817974        -2.233880        -1.246478
 H         4.277592        -0.910005        -2.459629
 H        -0.479396         0.754205         0.531559
 H        -0.248902         0.699915        -1.219633
 H        -0.502254        -0.752513        -0.246805
 H         2.184180         2.011820        -0.980719
 H         1.666209         2.158204         0.736066
 H         4.457113         1.326488         0.562938
 H         3.866885        -1.032517         1.708417
