19
Iteration:  1430
 C         4.532575        -0.941234        -1.514333
 C         3.506116        -0.453127        -0.544160
 O         2.312502         0.001083        -1.174305
 C         1.484673         0.244596        -0.077777
 C         0.180348         0.768061        -0.642877
 C         2.479843         1.276886         0.598692
 C         3.571232         0.304288         0.678928
 C         2.972695        -1.074147         0.866227
 O         1.553920        -1.023949         0.687295
 H         4.910414        -1.965750        -1.282095
 H         4.099322        -0.909140        -2.428468
 H         5.433026        -0.370577        -1.618535
 H        -0.376482         1.231552         0.164786
 H         0.491661         1.489209        -1.341909
 H        -0.407949        -0.034277        -1.172217
 H         2.872968         2.087068        -0.203265
 H         2.121510         1.904955         1.471277
 H         4.514082         0.580651         1.066374
 H         3.423016        -1.911009         1.438300
