19
Iteration:    24
 C         4.426075        -1.082978        -1.471228
 C         3.474618        -0.358891        -0.619059
 O         2.170781        -0.583921        -1.121153
 C         1.504694         0.091540        -0.064863
 C         0.034129        -0.164673        -0.103715
 C         2.231245         1.468094        -0.306639
 C         3.558525         0.936995         0.260113
 C         3.314713        -0.433517         0.974906
 O         1.933017        -0.562047         1.232847
 H         5.392924        -0.575149        -1.588647
 H         4.582128        -2.160109        -1.197384
 H         3.912487        -1.035974        -2.455455
 H        -0.532179         0.195363         0.759436
 H        -0.303559         0.301853        -0.985227
 H        -0.092392        -1.240402        -0.264212
 H         2.345831         1.533576        -1.416148
 H         1.801757         2.381989        -0.053712
 H         4.407360         1.605601         0.455807
 H         3.985659        -0.897165         1.620234
