19
Iteration:  1916charge 0 multiplicity 1
 C         4.658006        -1.049340        -1.409121
 C         3.549972        -0.536812        -0.587711
 O         2.386436        -0.105878        -1.339315
 C         1.523096         0.292985        -0.107203
 C         0.007713         0.729258        -0.355540
 C         2.398405         1.281853         0.543108
 C         3.591890         0.415338         0.636897
 C         2.977874        -1.002920         0.812635
 O         1.560495        -0.891722         0.603349
 H         4.190300        -1.477871        -2.262869
 H         5.347755        -0.185794        -1.669732
 H         5.245314        -1.746845        -0.839399
 H        -0.432390         0.784522         0.600287
 H        -0.216641         1.649493        -0.846596
 H        -0.493997        -0.050968        -0.815836
 H         2.389359         2.236601        -0.077328
 H         2.077298         1.547102         1.611248
 H         4.506768         0.813169         1.039644
 H         3.434451        -1.927810         1.300346
