19
Iteration:  2329
 C         4.738625        -1.135358        -1.379914
 C         3.491912        -0.438388        -0.607601
 O         2.213643        -0.141380        -1.325516
 C         1.492997         0.283224        -0.138309
 C         0.108261         0.620190        -0.411234
 C         2.352375         1.299962         0.639265
 C         3.595137         0.525527         0.540471
 C         3.038739        -0.928175         0.734668
 O         1.618358        -0.899062         0.741600
 H         5.115227        -1.993491        -0.885557
 H         4.447933        -1.581028        -2.386812
 H         5.438602        -0.373123        -1.563021
 H        -0.516803         0.861680         0.459965
 H        -0.028735         1.470890        -1.178148
 H        -0.423230        -0.213708        -0.870326
 H         2.371657         2.265738         0.037520
 H         2.139761         1.405304         1.727455
 H         4.531004         0.999711         0.806877
 H         3.473363        -1.671665         1.333844
