19
Iteration:  4186
 C         4.567718        -1.150951        -1.444918
 C         3.495660        -0.538224        -0.571289
 O         2.181440        -0.495588        -1.246731
 C         1.462725         0.127067        -0.158223
 C        -0.026245         0.199332        -0.280697
 C         2.261566         1.512265         0.139527
 C         3.564817         0.797469         0.338250
 C         3.317797        -0.586231         0.961235
 O         1.788833        -0.650425         1.008950
 H         5.357543        -0.464779        -1.751110
 H         5.276969        -1.886838        -0.966175
 H         4.088317        -1.486722        -2.335600
 H        -0.448262         0.613993         0.616233
 H        -0.182143         0.825454        -1.119179
 H        -0.360898        -0.820750        -0.323452
 H         2.356306         2.281204        -0.573369
 H         1.982360         1.957708         1.125891
 H         4.469463         1.361754         0.400002
 H         3.887770        -1.128667         1.602737
