19
Iteration:   710
 C         4.642371        -1.110470        -1.550759
 C         3.526795        -0.505077        -0.603177
 O         2.195411        -0.330726        -1.168173
 C         1.484329         0.261135        -0.161773
 C         0.008564         0.161480        -0.354763
 C         2.373784         1.462862         0.300558
 C         3.650462         0.686804         0.398625
 C         3.088372        -0.725046         0.865342
 O         1.693398        -0.662720         0.990850
 H         5.144534        -1.962228        -1.048151
 H         4.079911        -1.301339        -2.448056
 H         5.462607        -0.301003        -1.472508
 H        -0.450781         0.373990         0.624672
 H        -0.210093         0.537525        -1.309572
 H        -0.158367        -0.956129        -0.448095
 H         2.268005         2.071056        -0.677461
 H         1.997246         2.053739         1.257813
 H         4.615031         1.259057         0.619913
 H         3.415744        -1.406446         1.688181
