19
Iteration:  4261
 C         4.570671        -1.138746        -1.420285
 C         3.475905        -0.485892        -0.586581
 O         2.201342        -0.524249        -1.195493
 C         1.463617         0.192328        -0.108661
 C        -0.032177         0.096920        -0.328698
 C         2.256750         1.464610         0.174159
 C         3.660613         0.790005         0.228503
 C         3.276175        -0.578057         0.896465
 O         1.780173        -0.569675         1.072082
 H         5.581464        -1.221016        -0.968031
 H         4.154632        -2.049234        -1.978723
 H         4.704237        -0.406787        -2.175811
 H        -0.457383         0.478094         0.640201
 H        -0.332618         0.757674        -1.170471
 H        -0.322390        -1.026974        -0.304550
 H         2.241962         2.157016        -0.719251
 H         1.987953         1.991962         1.235441
 H         4.624775         1.272221         0.331718
 H         3.738459        -1.294366         1.506989
