19
Iteration:  4050
 C         4.658063        -1.014227        -1.413792
 C         3.392842        -0.497974        -0.639614
 O         2.114773        -0.385250        -1.176816
 C         1.422279         0.172260        -0.008790
 C        -0.001426         0.171594        -0.372028
 C         2.370949         1.413241         0.059855
 C         3.651029         0.676479         0.402722
 C         3.266765        -0.670746         0.836734
 O         1.771036        -0.671875         1.076036
 H         4.263839        -1.516737        -2.261855
 H         5.230900        -0.263158        -1.693353
 H         5.093356        -1.724580        -0.761157
 H        -0.640123         0.555638         0.431652
 H        -0.151561         0.836454        -1.263639
 H        -0.453290        -0.824938        -0.478557
 H         2.549632         1.854005        -0.998487
 H         2.232142         2.211062         0.783292
 H         4.428910         1.299369         0.698988
 H         3.826565        -1.273759         1.460021
