19
Iteration:  4338charge 0 multiplicity 1
 C         4.664847        -1.188879        -1.473358
 C         3.477773        -0.556394        -0.634493
 O         2.137218        -0.504617        -1.146651
 C         1.488279         0.157261        -0.105539
 C        -0.044352         0.161530        -0.342515
 C         2.258129         1.460225         0.207172
 C         3.617253         0.841383         0.225528
 C         3.238249        -0.463477         0.849346
 O         1.840558        -0.620376         1.121896
 H         5.073447        -2.073526        -0.920175
 H         4.161941        -1.354422        -2.470124
 H         5.427696        -0.512490        -1.607002
 H        -0.594700         0.620067         0.551349
 H        -0.399951         0.687210        -1.313354
 H        -0.285916        -0.998401        -0.473453
 H         2.022495         2.016098        -0.679658
 H         1.862266         1.716633         1.295869
 H         4.551206         1.375178         0.420474
 H         3.820878        -1.164424         1.561905
