19
Iteration:  2066charge 0 multiplicity 1
 C         4.673226        -1.023227        -1.332756
 C         3.414050        -0.524850        -0.636928
 O         2.286415        -0.077946        -1.326884
 C         1.549673         0.387454        -0.163824
 C         0.025275         0.589232        -0.433115
 C         2.520364         1.330391         0.603654
 C         3.644398         0.368582         0.662540
 C         2.934974        -1.073984         0.638393
 O         1.569997        -0.814565         0.785076
 H         4.523564        -1.712089        -2.117575
 H         5.211621        -0.090947        -1.739538
 H         5.256799        -1.542313        -0.584608
 H        -0.565794         0.823957         0.497343
 H        -0.166472         1.448364        -1.218131
 H        -0.195833        -0.411977        -0.977736
 H         2.564508         2.230454        -0.020277
 H         2.150046         1.802967         1.479725
 H         4.682541         0.333648         1.032366
 H         3.368646        -1.993869         0.931110
