19
Iteration:  2985charge 0 multiplicity 1
 C         4.491393        -0.977068        -1.566130
 C         3.582133        -0.494699        -0.541545
 O         2.323325        -0.345165        -1.233915
 C         1.468787         0.185896        -0.051997
 C         0.058618         0.458992        -0.471125
 C         2.348988         1.400429         0.416960
 C         3.625921         0.569889         0.528199
 C         3.091032        -0.787089         0.876994
 O         1.651653        -0.801765         0.890097
 H         5.047346        -1.854479        -1.172974
 H         4.074036        -1.369562        -2.449422
 H         5.153845        -0.301003        -2.040487
 H        -0.546673         0.895967         0.358717
 H         0.029296         1.110567        -1.362353
 H        -0.392842        -0.543801        -0.816508
 H         2.472535         2.107144        -0.436425
 H         2.064137         1.873046         1.366382
 H         4.577290         1.013869         0.979718
 H         3.601681        -1.612694         1.460253
