19
Iteration:  3517
 C         4.471998        -1.186829        -1.454903
 C         3.486124        -0.426511        -0.578264
 O         2.180944        -0.304182        -1.184045
 C         1.510085         0.177179        -0.071333
 C         0.015118         0.196360        -0.469731
 C         2.344086         1.469895         0.224385
 C         3.653703         0.739900         0.385817
 C         3.222355        -0.710509         0.859524
 O         1.802720        -0.718490         1.056478
 H         5.504658        -0.882128        -1.422534
 H         4.537023        -2.324210        -1.281259
 H         4.112711        -0.959038        -2.435043
 H        -0.584322         0.746536         0.370382
 H        -0.226538         0.807938        -1.377928
 H        -0.265999        -0.896929        -0.711364
 H         2.220122         2.171221        -0.730812
 H         1.889209         2.007293         1.071307
 H         4.546412         1.132741         0.918983
 H         3.773416        -1.302482         1.578041
