19
Iteration:  3591
 C         4.597429        -1.025734        -1.344430
 C         3.451482        -0.505390        -0.596367
 O         2.128685        -0.383781        -1.269832
 C         1.463465         0.185872        -0.046454
 C        -0.033755         0.241477        -0.297782
 C         2.347222         1.499291         0.138119
 C         3.608827         0.608398         0.320575
 C         3.187295        -0.760666         0.813025
 O         1.830057        -0.681540         1.026123
 H         5.330175        -1.008984        -0.507598
 H         4.527641        -2.097610        -1.665590
 H         4.986411        -0.397133        -2.182051
 H        -0.471476         0.805624         0.565495
 H        -0.260207         0.867613        -1.144006
 H        -0.267936        -0.780318        -0.620616
 H         2.397487         2.021532        -0.816623
 H         2.205229         2.207808         0.911731
 H         4.687440         0.965611         0.527203
 H         3.738716        -1.212769         1.668743
