19
Iteration:  4967
 C         4.509643        -1.117092        -1.367515
 C         3.528049        -0.407729        -0.586924
 O         2.167739        -0.505161        -1.171906
 C         1.439018         0.144644        -0.066044
 C        -0.010296         0.100593        -0.315168
 C         2.220108         1.431599         0.029487
 C         3.573945         0.759223         0.279445
 C         3.311435        -0.462141         0.954748
 O         1.873520        -0.683659         1.038186
 H         5.602012        -0.800545        -1.284088
 H         4.316016        -2.257787        -1.210326
 H         4.359078        -1.009265        -2.539983
 H        -0.392008         0.893052         0.414003
 H         0.047360         0.662687        -1.342325
 H        -0.478397        -0.946733        -0.380778
 H         2.155508         1.928332        -0.966449
 H         2.079985         2.058376         0.878304
 H         4.537326         1.390828         0.461617
 H         3.933352        -1.040142         1.659795
