19
Iteration:  4678charge 0 multiplicity 1
 C         4.549339        -0.965966        -1.517534
 C         3.443431        -0.498284        -0.562136
 O         2.208871        -0.609948        -1.101639
 C         1.493816         0.124915        -0.113401
 C         0.002462         0.223568        -0.300994
 C         2.281273         1.482969        -0.061683
 C         3.543634         0.719024         0.293537
 C         3.227798        -0.541082         1.018607
 O         1.871306        -0.672584         1.120707
 H         5.225221        -1.732009        -1.023554
 H         4.199609        -1.723049        -2.284255
 H         5.121529        -0.150821        -1.956541
 H        -0.571047         0.549192         0.587499
 H        -0.141030         0.899013        -1.160652
 H        -0.342047        -0.827436        -0.538851
 H         2.320427         1.940299        -0.954420
 H         1.915543         2.226028         0.571251
 H         4.466469         1.220441         0.373470
 H         3.707065        -1.179817         1.695770
