19
Iteration:  1168charge 0 multiplicity 1
 C         4.636512        -1.002413        -1.528940
 C         3.512924        -0.539127        -0.529104
 O         2.315350        -0.069722        -1.274653
 C         1.485669         0.369166        -0.213687
 C        -0.046852         0.485676        -0.491359
 C         2.496397         1.330938         0.559291
 C         3.650733         0.401326         0.726093
 C         2.988304        -1.015913         0.761857
 O         1.614643        -0.791969         0.772403
 H         5.636673        -1.298817        -0.980485
 H         4.261487        -1.840613        -2.096684
 H         4.973761        -0.139417        -2.204625
 H        -0.482732         0.622125         0.485662
 H        -0.435315         1.325755        -1.105790
 H        -0.318663        -0.420220        -0.943242
 H         2.718317         2.235907         0.087628
 H         1.912203         1.529848         1.389503
 H         4.545312         0.554243         1.284232
 H         3.306663        -1.884503         1.379808
