19
Iteration:   735
 C         4.472877        -1.078856        -1.389598
 C         3.452684        -0.446728        -0.609296
 O         2.215725        -0.281582        -1.261256
 C         1.449879         0.239522        -0.103780
 C        -0.056350         0.225097        -0.435862
 C         2.362863         1.440072         0.238791
 C         3.612216         0.665658         0.423480
 C         3.241843        -0.739189         0.854846
 O         1.866756        -0.784395         1.035034
 H         5.199998        -1.496651        -0.623672
 H         3.872885        -1.884306        -1.870606
 H         5.117570        -0.350796        -1.966668
 H        -0.707598         0.503256         0.348602
 H         0.033252         0.846484        -1.312151
 H        -0.293771        -0.734480        -0.845254
 H         2.344389         2.093553        -0.568230
 H         2.046190         1.916108         1.186913
 H         4.470121         1.158732         0.765772
 H         3.850529        -1.412813         1.440984
