19
Iteration:  3365
 C         4.503957        -1.181777        -1.479710
 C         3.492760        -0.482869        -0.579412
 O         2.218856        -0.325339        -1.210152
 C         1.459156         0.207845        -0.077708
 C         0.016406         0.161192        -0.367294
 C         2.306973         1.456501         0.215240
 C         3.656975         0.710829         0.395673
 C         3.213471        -0.649395         0.891061
 O         1.817902        -0.678365         0.988473
 H         5.192667        -1.762435        -0.863006
 H         3.760327        -1.594167        -2.188845
 H         4.971673        -0.434410        -2.101489
 H        -0.666294         0.531144         0.447085
 H        -0.264352         0.671366        -1.257355
 H        -0.400041        -0.796224        -0.610146
 H         2.440633         2.196986        -0.643341
 H         1.991379         1.949265         1.147816
 H         4.573206         1.264548         0.683603
 H         3.705443        -1.383448         1.639658
