19
Iteration:  4092
 C         4.560201        -1.107209        -1.543799
 C         3.566760        -0.583365        -0.512475
 O         2.217283        -0.537212        -1.199411
 C         1.494057         0.144144        -0.163707
 C        -0.001488         0.281779        -0.419792
 C         2.211453         1.390374         0.264548
 C         3.607180         0.741269         0.327279
 C         3.274250        -0.530998         0.956545
 O         1.773073        -0.602399         1.045357
 H         4.144138        -1.152924        -2.580852
 H         5.365070        -0.343648        -1.618055
 H         4.939392        -2.130541        -1.426153
 H        -0.420757         0.718123         0.586138
 H        -0.293450         1.048668        -1.231173
 H        -0.515233        -0.724403        -0.502738
 H         2.075084         2.246584        -0.546367
 H         1.747869         1.631043         1.197732
 H         4.489161         1.202329         0.683534
 H         3.762602        -1.049773         1.681997
