19
Iteration:  1139charge 0 multiplicity 1
 C         4.579541        -0.921429        -1.493019
 C         3.459195        -0.526301        -0.536535
 O         2.305187        -0.165472        -1.276462
 C         1.515131         0.308634        -0.043847
 C         0.142284         0.538232        -0.530624
 C         2.444527         1.330951         0.522415
 C         3.608307         0.423951         0.630503
 C         3.000186        -0.969336         0.807127
 O         1.585098        -0.852499         0.785283
 H         5.010635        -1.902067        -1.450805
 H         4.166007        -0.875133        -2.517166
 H         5.373384        -0.216497        -1.612504
 H        -0.597233         0.628313         0.315883
 H         0.108187         1.442857        -1.134729
 H        -0.045291        -0.362604        -1.215932
 H         2.457221         2.227053        -0.162614
 H         1.900565         1.594733         1.492989
 H         4.640162         0.469730         0.992028
 H         3.430698        -1.688957         1.556718
