19
Iteration:   277
 C         4.570853        -1.100477        -1.365700
 C         3.463275        -0.438866        -0.601504
 O         2.141243        -0.550876        -1.098989
 C         1.469608         0.144193        -0.056238
 C        -0.048982        -0.016986        -0.274313
 C         2.228227         1.495892        -0.024268
 C         3.585324         0.823456         0.156000
 C         3.318145        -0.525680         0.876336
 O         1.910917        -0.554368         1.120747
 H         5.528147        -0.958072        -0.916164
 H         4.449571        -2.174615        -1.449497
 H         4.684817        -0.694899        -2.374604
 H        -0.589004         0.531549         0.489314
 H        -0.338934         0.202575        -1.343771
 H        -0.237218        -1.088645        -0.178441
 H         2.148504         1.968711        -1.010130
 H         1.787813         2.206686         0.732667
 H         4.474158         1.439588         0.285121
 H         3.905978        -1.075607         1.581620
