19
Iteration:  3578
 C         4.586336        -1.077749        -1.306810
 C         3.425065        -0.464102        -0.681151
 O         2.170623        -0.346459        -1.212897
 C         1.457745         0.158084        -0.045981
 C        -0.009774         0.299913        -0.335426
 C         2.339252         1.421918         0.124420
 C         3.636102         0.704939         0.329318
 C         3.247939        -0.762267         0.861479
 O         1.785313        -0.713425         1.040973
 H         5.597363        -0.829075        -0.819694
 H         4.399788        -2.123631        -1.487331
 H         4.709486        -0.637659        -2.434909
 H        -0.596900         0.627492         0.466094
 H        -0.045962         0.874844        -1.219545
 H        -0.485180        -0.636880        -0.455427
 H         2.317567         1.916678        -0.762633
 H         1.923206         1.997829         0.946688
 H         4.605564         1.152847         0.485367
 H         3.769814        -1.504077         1.365227
