19
Iteration:  2825charge 0 multiplicity 1
 C         4.620867        -1.009586        -1.508094
 C         3.468469        -0.498790        -0.621302
 O         2.216463        -0.186011        -1.236542
 C         1.490675         0.311855        -0.062428
 C         0.019570         0.456875        -0.582990
 C         2.463029         1.423777         0.478464
 C         3.620722         0.487822         0.560686
 C         3.061821        -0.958834         0.798752
 O         1.678806        -0.826915         0.981911
 H         4.787882        -0.167331        -2.158455
 H         5.485078        -1.205618        -0.915622
 H         4.133395        -1.903746        -2.024453
 H        -0.724723         0.618104         0.145526
 H        -0.034215         0.994943        -1.498118
 H        -0.123463        -0.494039        -1.023224
 H         2.603001         2.169782        -0.302039
 H         2.009834         1.793165         1.402919
 H         4.602334         0.755268         0.957779
 H         3.673961        -1.661786         1.415337
