19
Iteration:  3763charge 0 multiplicity 1
 C         4.603319        -1.057163        -1.424203
 C         3.477747        -0.530515        -0.609228
 O         2.213125        -0.524137        -1.203115
 C         1.481194         0.119111        -0.133737
 C        -0.024612         0.388667        -0.355544
 C         2.259900         1.440099         0.262415
 C         3.601986         0.745488         0.279181
 C         3.197580        -0.665826         0.822874
 O         1.798932        -0.711171         1.055050
 H         5.378379        -1.537468        -0.772389
 H         4.267238        -1.539414        -2.299772
 H         5.374775        -0.278461        -1.745292
 H        -0.452662         0.753586         0.581673
 H        -0.103322         1.050116        -1.207604
 H        -0.491738        -0.564911        -0.605079
 H         2.216851         2.202245        -0.516679
 H         1.861258         1.779396         1.290678
 H         4.602118         1.128348         0.601386
 H         3.670431        -1.266623         1.618551
