19
Iteration:  4196charge 0 multiplicity 1
 C         4.560717        -1.081118        -1.441043
 C         3.484810        -0.449973        -0.590924
 O         2.193207        -0.491011        -1.181487
 C         1.481915         0.095938        -0.109364
 C         0.003832         0.243428        -0.347915
 C         2.263664         1.493454         0.104118
 C         3.586788         0.706850         0.317486
 C         3.253805        -0.578036         0.943014
 O         1.862574        -0.713088         1.067390
 H         5.236804        -0.318658        -1.720751
 H         4.846118        -2.044938        -1.000367
 H         4.031231        -1.370770        -2.300818
 H        -0.396513         0.708292         0.561342
 H        -0.305461         0.885520        -1.156467
 H        -0.597407        -0.697505        -0.467941
 H         2.250257         1.837896        -0.902479
 H         1.738684         2.185893         0.864397
 H         4.535987         1.184230         0.483248
 H         3.831790        -1.027532         1.645575
