19
Iteration:  1463
 C         4.620445        -1.054568        -1.470575
 C         3.501712        -0.484776        -0.630001
 O         2.368408        -0.094185        -1.303895
 C         1.568871         0.324476        -0.238545
 C         0.178998         0.779962        -0.489977
 C         2.378770         1.219752         0.686441
 C         3.538532         0.335924         0.696900
 C         2.969248        -1.007751         0.740198
 O         1.515267        -0.868019         0.740139
 H         5.349344        -1.619239        -0.850906
 H         4.302034        -1.754750        -2.149063
 H         5.158643        -0.239634        -1.939896
 H        -0.282897         0.944045         0.485744
 H         0.157242         1.700012        -1.021136
 H        -0.504155         0.004101        -0.928842
 H         2.649642         2.378622         0.399360
 H         1.710052         1.186833         1.629120
 H         4.421114         0.550338         1.252895
 H         3.500008        -1.863950         1.272417
