19
Iteration:    30
 C         4.410146        -1.093639        -1.486929
 C         3.521320        -0.410628        -0.534268
 O         2.213586        -0.585216        -1.080681
 C         1.467404         0.109286        -0.065509
 C        -0.038808        -0.181194        -0.121124
 C         2.248575         1.494667        -0.304635
 C         3.525706         0.890397         0.229095
 C         3.309424        -0.418450         0.938751
 O         1.983996        -0.536605         1.184804
 H         5.306327        -0.511937        -1.736395
 H         4.743342        -2.094578        -1.243666
 H         3.870111        -1.100389        -2.433004
 H        -0.527499         0.169429         0.795604
 H        -0.489891         0.362534        -1.028052
 H        -0.182469        -1.262961        -0.254569
 H         2.338468         1.755081        -1.362020
 H         1.807964         2.488121         0.121821
 H         4.289816         1.545691         0.617297
 H         4.049556        -0.836693         1.686283
