19
Iteration:  2484charge 0 multiplicity 1
 C         4.624718        -1.109943        -1.379035
 C         3.581066        -0.462406        -0.589323
 O         2.349027        -0.170254        -1.355106
 C         1.539715         0.285651        -0.182830
 C         0.007016         0.468658        -0.274754
 C         2.333718         1.395100         0.453164
 C         3.617626         0.535914         0.627569
 C         3.008022        -0.940570         0.716141
 O         1.605875        -0.799192         0.744925
 H         4.233388        -1.118855        -2.400286
 H         5.533057        -0.479369        -1.255706
 H         4.740208        -2.152594        -1.071956
 H        -0.333252         0.747245         0.731029
 H        -0.278169         1.293499        -0.923368
 H        -0.260496        -0.576413        -0.511976
 H         2.417115         2.284928        -0.132811
 H         1.891866         1.722562         1.379504
 H         4.546325         0.871414         1.030102
 H         3.372945        -1.898690         1.130618
