19
Iteration:  4116
 C         4.540849        -1.155145        -1.459731
 C         3.566466        -0.402429        -0.605931
 O         2.226910        -0.443390        -1.155716
 C         1.476923         0.144967        -0.067958
 C         0.001117         0.203762        -0.393025
 C         2.280375         1.485350         0.159904
 C         3.558243         0.761693         0.331556
 C         3.242426        -0.627066         0.892245
 O         1.790141        -0.727483         1.038428
 H         4.294524        -1.158706        -2.500923
 H         5.489869        -0.814678        -1.430303
 H         4.410366        -2.191182        -1.167294
 H        -0.499107         0.702071         0.502492
 H        -0.088765         0.975107        -1.216561
 H        -0.573333        -0.779240        -0.506735
 H         2.230380         2.234955        -0.732108
 H         1.920367         1.927763         1.115888
 H         4.419714         1.396185         0.511478
 H         3.814434        -1.245939         1.698664
