19
Iteration:   928
 C         4.647482        -1.109319        -1.437771
 C         3.510491        -0.524801        -0.654279
 O         2.221628        -0.201155        -1.248148
 C         1.547214         0.308798        -0.193263
 C         0.004073         0.293855        -0.422522
 C         2.352550         1.424293         0.456605
 C         3.617860         0.515999         0.544425
 C         3.102216        -0.876992         0.772750
 O         1.666891        -0.654190         0.873542
 H         5.320039        -1.517131        -0.698324
 H         4.284260        -1.641030        -2.278097
 H         5.231168        -0.241256        -1.875802
 H        -0.387376         0.597004         0.582627
 H        -0.534112         1.051910        -1.069021
 H        -0.260176        -0.797363        -0.692701
 H         2.509399         2.344823        -0.072140
 H         1.740836         1.673461         1.392020
 H         4.629830         0.600701         1.000214
 H         3.548663        -1.513503         1.581239
