19
Iteration:  1562
 C         4.634958        -1.060470        -1.521300
 C         3.528777        -0.458446        -0.552072
 O         2.263430        -0.116765        -1.247514
 C         1.459783         0.277488        -0.116606
 C         0.215678         0.860730        -0.614997
 C         2.399479         1.244576         0.754498
 C         3.630559         0.356555         0.734556
 C         3.004831        -1.022608         0.747633
 O         1.507687        -0.959927         0.678415
 H         5.677203        -0.720244        -1.440303
 H         4.713342        -2.081894        -1.615485
 H         4.231820        -0.599401        -2.399642
 H        -0.484865         1.184826         0.133190
 H         0.500663         1.739585        -1.226647
 H        -0.206834         0.234362        -1.362400
 H         2.377531         2.370921         0.389040
 H         2.006136         1.082301         1.785537
 H         4.651870         0.722369         1.031048
 H         3.380801        -1.839694         1.304414
