19
Iteration:  4235charge 0 multiplicity 1
 C         4.576877        -1.026143        -1.517801
 C         3.472517        -0.552021        -0.609472
 O         2.156057        -0.575939        -1.127515
 C         1.461397         0.158943        -0.099036
 C        -0.010881         0.209149        -0.425003
 C         2.246481         1.460844         0.176718
 C         3.583056         0.726321         0.273736
 C         3.241172        -0.558517         0.940173
 O         1.867971        -0.618974         1.132437
 H         5.598075        -0.669260        -1.275817
 H         4.788269        -2.084997        -1.486917
 H         4.341857        -0.714321        -2.604384
 H        -0.475339         0.615764         0.490535
 H        -0.068015         0.930628        -1.251082
 H        -0.425741        -0.807346        -0.553051
 H         2.250432         2.085916        -0.770913
 H         1.978797         2.060483         1.033059
 H         4.660705         0.980516         0.347360
 H         3.799995        -1.058153         1.808993
