19
Iteration:  1728
 C         4.644626        -1.004806        -1.530649
 C         3.483489        -0.495848        -0.576571
 O         2.360511        -0.031553        -1.194405
 C         1.510450         0.346006        -0.100275
 C         0.087418         0.613955        -0.493852
 C         2.520125         1.379118         0.564936
 C         3.627691         0.324130         0.845787
 C         2.901575        -1.060263         0.718814
 O         1.485883        -0.915852         0.617238
 H         4.725472        -2.064159        -1.526399
 H         4.501714        -0.747180        -2.583636
 H         5.583958        -0.565119        -1.280300
 H        -0.442210         0.628950         0.449950
 H        -0.148531         1.491863        -0.984837
 H        -0.123549        -0.267006        -1.101344
 H         2.895893         2.195141        -0.229895
 H         2.034349         1.968553         1.410783
 H         4.633896         0.472702         1.242420
 H         3.167787        -1.934425         1.372060
