19
Iteration:  2356
 C         4.662105        -1.051989        -1.288131
 C         3.471454        -0.449343        -0.613269
 O         2.215662        -0.076320        -1.344377
 C         1.434175         0.228540        -0.061964
 C         0.019846         0.626381        -0.437015
 C         2.382698         1.328907         0.478684
 C         3.641587         0.433007         0.605451
 C         3.080859        -1.018604         0.669438
 O         1.708146        -0.875993         0.796546
 H         4.865044        -2.148901        -1.021186
 H         4.424181        -0.974031        -2.342897
 H         5.564249        -0.364039        -1.140286
 H        -0.613935         0.843649         0.466572
 H         0.045276         1.464108        -1.145212
 H        -0.581507        -0.121840        -1.090593
 H         2.473649         2.030877        -0.299855
 H         2.168824         1.722585         1.457088
 H         4.655938         0.675381         0.960898
 H         3.583116        -1.806296         1.352270
