19
Iteration:  2546
 C         4.516177        -0.943521        -1.493129
 C         3.503538        -0.475992        -0.562842
 O         2.214006        -0.347253        -1.204797
 C         1.480626         0.173964        -0.141672
 C         0.107892         0.559787        -0.590999
 C         2.356622         1.340795         0.590605
 C         3.619076         0.477363         0.536047
 C         3.159772        -0.898217         0.796990
 O         1.698520        -0.731650         0.870879
 H         4.659350        -0.283670        -2.374801
 H         5.545097        -1.092472        -1.012306
 H         4.335733        -1.926145        -1.977172
 H        -0.607666         0.656034         0.197794
 H         0.130555         1.312104        -1.377461
 H        -0.396501        -0.099968        -1.228762
 H         2.546960         2.419230         0.077639
 H         1.992434         1.349316         1.691184
 H         4.485729         1.001250         0.842429
 H         3.464742        -1.640605         1.562744
