19
Iteration:  3597charge 0 multiplicity 1
 C         4.616413        -1.030257        -1.336765
 C         3.448222        -0.576441        -0.642141
 O         2.130044        -0.411865        -1.243225
 C         1.470225         0.251186        -0.085731
 C        -0.047896         0.216204        -0.282003
 C         2.378065         1.484796         0.156383
 C         3.620382         0.646955         0.336813
 C         3.150393        -0.713114         0.840283
 O         1.806589        -0.678196         1.013057
 H         5.495470        -1.097071        -0.656275
 H         4.524524        -1.926300        -1.962744
 H         5.165409        -0.425126        -2.143582
 H        -0.413584         0.671684         0.624576
 H        -0.236935         0.897339        -1.145139
 H        -0.334405        -0.810009        -0.534234
 H         2.424881         2.033191        -0.805419
 H         2.163355         2.157806         1.054962
 H         4.545103         1.044392         0.525323
 H         3.725719        -1.211770         1.562457
