19
Iteration:  1306
 C         4.597817        -0.977325        -1.513482
 C         3.512827        -0.503875        -0.630279
 O         2.337194        -0.089812        -1.258169
 C         1.526669         0.336058        -0.146510
 C         0.134421         0.652301        -0.540590
 C         2.380446         1.294000         0.677903
 C         3.631623         0.349115         0.592199
 C         2.958083        -1.103385         0.781312
 O         1.543032        -0.824157         0.795574
 H         4.412517        -0.907676        -2.534201
 H         5.516006        -0.355590        -1.325506
 H         4.927954        -1.949382        -1.183279
 H        -0.488116         0.613325         0.368361
 H        -0.066047         1.638530        -1.145368
 H         0.088446        -0.139939        -1.265952
 H         2.635609         2.361893         0.253136
 H         1.955919         1.349929         1.761387
 H         4.645056         0.594302         0.890641
 H         3.063477        -1.896639         1.605147
