19
Iteration:  2282charge 0 multiplicity 1
 C         4.560835        -0.992235        -1.551510
 C         3.556589        -0.474133        -0.519553
 O         2.299131        -0.007901        -1.229579
 C         1.492164         0.293403        -0.054675
 C         0.096413         0.497673        -0.549536
 C         2.457026         1.418705         0.483892
 C         3.666088         0.375792         0.687990
 C         3.004599        -1.017844         0.807111
 O         1.559012        -0.890412         0.775512
 H         5.570795        -1.230223        -1.151843
 H         4.308098        -2.120703        -1.619169
 H         4.304615        -0.367018        -2.460741
 H        -0.690827         0.717135         0.183783
 H         0.123535         1.170256        -1.331225
 H        -0.271981        -0.400484        -1.024078
 H         2.613877         2.048920        -0.470288
 H         2.026563         1.920169         1.442151
 H         4.599367         0.526395         1.226672
 H         3.363070        -1.853303         1.502728
