19
Iteration:  3069charge 0 multiplicity 1
 C         4.540589        -1.150868        -1.444561
 C         3.525794        -0.458552        -0.567324
 O         2.330266        -0.242748        -1.306783
 C         1.464983         0.178836        -0.136732
 C        -0.046684         0.360753        -0.328052
 C         2.308823         1.379192         0.352474
 C         3.694775         0.636459         0.527487
 C         3.150361        -0.751449         0.816309
 O         1.724659        -0.728043         0.841500
 H         4.143284        -2.054317        -2.000978
 H         4.850356        -0.323031        -2.219004
 H         5.230605        -1.573413        -0.713561
 H        -0.573094         0.478485         0.640527
 H        -0.469627         1.080327        -0.994095
 H        -0.393980        -0.683495        -0.547781
 H         2.315604         2.214757        -0.310606
 H         1.819510         1.683381         1.250622
 H         4.672900         1.139375         0.782633
 H         3.552481        -1.508776         1.590623
