19
Iteration:  2033
 C         4.639153        -1.060588        -1.400732
 C         3.473251        -0.486705        -0.600871
 O         2.322519        -0.022053        -1.266602
 C         1.496219         0.321236        -0.132626
 C         0.086689         0.702126        -0.461707
 C         2.473143         1.301985         0.622325
 C         3.631846         0.365990         0.622610
 C         2.965293        -1.024234         0.765308
 O         1.559260        -0.942862         0.680696
 H         4.462004        -2.101747        -1.566493
 H         4.848436        -0.503516        -2.391197
 H         5.548728        -0.836587        -0.846302
 H        -0.600812         0.985685         0.387658
 H         0.085989         1.519017        -1.264211
 H        -0.507399        -0.218275        -0.881400
 H         2.431316         2.041861        -0.187215
 H         1.950930         1.646086         1.493893
 H         4.639639         0.515875         1.038518
 H         3.524815        -1.799878         1.289699
