19
Iteration:  3769
 C         4.604591        -1.044162        -1.422330
 C         3.498932        -0.568932        -0.619362
 O         2.196980        -0.548936        -1.202942
 C         1.473243         0.120192        -0.174878
 C        -0.031473         0.357035        -0.371319
 C         2.321427         1.420530         0.352153
 C         3.576493         0.761241         0.304398
 C         3.191117        -0.618452         0.839211
 O         1.776430        -0.659424         1.029330
 H         5.412492        -1.636075        -0.984347
 H         4.370841        -1.744906        -2.313790
 H         5.159653        -0.253502        -1.911466
 H        -0.585727         0.667707         0.533321
 H         0.036451         1.096358        -1.267297
 H        -0.504406        -0.648186        -0.586671
 H         2.170205         2.246714        -0.363996
 H         2.054918         1.714775         1.376480
 H         4.601310         1.212584         0.478347
 H         3.777587        -1.208556         1.602589
