19
Iteration:  3844charge 0 multiplicity 1
 C         4.542479        -1.188059        -1.424491
 C         3.554005        -0.504907        -0.594694
 O         2.266842        -0.329516        -1.212624
 C         1.464116         0.244365        -0.171353
 C        -0.021378         0.203579        -0.357473
 C         2.286116         1.472401         0.331092
 C         3.580158         0.754268         0.395174
 C         3.195155        -0.659515         0.831293
 O         1.761241        -0.735765         0.913121
 H         5.590588        -0.980934        -1.421307
 H         4.762909        -2.311754        -1.227736
 H         4.139432        -1.094991        -2.436773
 H        -0.278674         0.666055         0.574873
 H        -0.402574         0.873297        -1.134840
 H        -0.415487        -0.798036        -0.384459
 H         2.372135         2.370579        -0.283391
 H         1.985805         1.737186         1.301279
 H         4.543826         1.286599         0.745761
 H         3.728868        -1.317231         1.616500
