19
Iteration:   540charge 0 multiplicity 1
 C         4.653345        -1.112386        -1.452854
 C         3.531666        -0.561604        -0.631045
 O         2.177110        -0.581438        -1.151371
 C         1.492127         0.176165        -0.094727
 C        -0.052844         0.278804        -0.366995
 C         2.167125         1.396927         0.305974
 C         3.574531         0.795126         0.235654
 C         3.269883        -0.488981         0.830203
 O         1.849689        -0.674976         1.014079
 H         5.501157        -0.545719        -1.097528
 H         4.584818        -2.202803        -1.362634
 H         4.504465        -0.819980        -2.473348
 H        -0.542419         0.703402         0.571629
 H        -0.071720         0.871200        -1.306311
 H        -0.342217        -0.806668        -0.596298
 H         2.015998         2.180817        -0.392007
 H         1.893169         1.703251         1.373595
 H         4.534847         1.314505         0.433117
 H         3.549851        -0.862734         1.809528
