19
Iteration:  3523
 O        -2.818814         3.793239         1.480294
 C        -1.885946         2.764503         1.606833
 C        -1.457134         1.891452         0.454259
 C        -0.514596         0.979187         1.321910
 O         0.039785         0.053858         0.396987
 C        -1.529760         0.439195         2.414507
 C        -2.024457         1.786384         2.840223
 C        -0.760425         2.747872         2.736586
 C         0.387332         1.867787         2.177987
 H        -2.576549         4.339866         0.723951
 H        -2.266319         1.422453        -0.092922
 H        -0.878000         2.371289        -0.402703
 H         0.084743        -0.830020         0.851894
 H        -2.359878        -0.060828         1.901065
 H        -1.156053        -0.243222         3.200330
 H        -2.826356         1.889723         3.582410
 H        -0.476295         3.607936         3.393973
 H         1.104396         2.439289         1.439839
 H         0.905462         1.199289         2.848460
