19
Iteration:  4890
 O        -2.710079         3.834450         1.392730
 C        -1.937365         2.771781         1.688986
 C        -1.529079         1.919504         0.489209
 C        -0.594381         0.954020         1.272745
 O        -0.016691        -0.186003         0.504236
 C        -1.398756         0.367759         2.472330
 C        -2.005534         1.715738         2.896367
 C        -0.756685         2.769723         2.665936
 C         0.298230         2.126068         1.922461
 H        -2.223662         4.627093         1.646692
 H        -2.464697         1.648420        -0.023417
 H        -0.926561         2.504063        -0.225390
 H         0.311864        -0.641696         1.227090
 H        -2.089778        -0.377362         2.039526
 H        -0.808454        -0.159800         3.280005
 H        -2.549244         1.896238         3.820382
 H        -0.739087         3.586914         3.429094
 H         0.806901         2.870218         1.152748
 H         1.059722         1.568821         2.506262
