19
Iteration:  3083charge 0 multiplicity 1
 O        -2.670544         3.860723         1.526734
 C        -1.803132         2.713113         1.658023
 C        -1.381336         1.943383         0.454608
 C        -0.548428         0.975799         1.269766
 O         0.048487         0.023615         0.512638
 C        -1.685817         0.404711         2.288572
 C        -2.053227         1.803068         2.750427
 C        -0.809119         2.637724         2.813175
 C         0.339706         1.936992         2.114563
 H        -3.268074         3.582442         0.797653
 H        -2.272790         1.423724         0.038049
 H        -0.752905         2.525522        -0.267058
 H         0.759994        -0.239483         1.020683
 H        -2.546861        -0.122946         1.789275
 H        -1.324816        -0.183015         3.228374
 H        -2.997618         1.993814         3.221103
 H        -0.598334         3.485378         3.453858
 H         0.857368         2.419684         1.241376
 H         1.070791         1.393417         2.771065
