19
Iteration:  3344charge 0 multiplicity 1
 O        -2.643580         3.886621         1.565490
 C        -1.939595         2.747290         1.674550
 C        -1.518700         2.044102         0.383551
 C        -0.545928         1.029787         1.195874
 O         0.082961        -0.199785         0.687492
 C        -1.479050         0.480125         2.219467
 C        -2.015911         1.696189         2.830581
 C        -0.886246         2.806705         2.673100
 C         0.330618         1.858251         2.134602
 H        -3.436569         3.682272         1.043908
 H        -2.275788         1.640440        -0.329616
 H        -0.814641         2.603439        -0.162638
 H         0.624268        -0.051171        -0.205373
 H        -2.229262        -0.161156         1.713563
 H        -1.075574        -0.232447         2.877145
 H        -2.589649         1.688545         3.759362
 H        -0.955790         3.604711         3.443908
 H         1.243203         2.399856         1.673342
 H         0.813306         1.287945         2.919069
