19
Iteration:  1504charge 0 multiplicity 1
 O        -2.773633         3.811006         1.556399
 C        -1.883195         2.787769         1.673057
 C        -1.419502         1.990300         0.457525
 C        -0.582160         0.923664         1.318772
 O         0.162393        -0.110932         0.573396
 C        -1.630869         0.447723         2.241365
 C        -2.059876         1.816046         2.774768
 C        -0.728983         2.714931         2.705372
 C         0.352953         1.899600         2.108527
 H        -2.425836         4.638085         1.220648
 H        -2.233184         1.493945        -0.086732
 H        -0.715998         2.645932        -0.181633
 H        -0.410369        -0.585662         0.021433
 H        -2.549133         0.040692         1.787501
 H        -1.329634        -0.289738         2.948842
 H        -2.877206         1.862144         3.524150
 H        -0.531713         3.611236         3.259477
 H         0.915058         2.545253         1.493906
 H         1.035552         1.272496         2.702614
