19
Iteration:  2859
 O        -2.789193         3.944301         1.602202
 C        -1.858020         2.783587         1.613562
 C        -1.308718         1.951838         0.448604
 C        -0.509992         0.945550         1.327213
 O         0.048801        -0.186369         0.494789
 C        -1.637348         0.411139         2.274832
 C        -2.077149         1.811352         2.720170
 C        -0.809507         2.725917         2.718754
 C         0.361631         1.955573         2.102444
 H        -3.679016         3.600255         1.529301
 H        -1.997313         1.442324        -0.288442
 H        -0.735005         2.538280        -0.254479
 H         0.769657        -0.618689         1.010754
 H        -2.470672        -0.144814         1.773333
 H        -1.087278        -0.221902         3.111054
 H        -2.716527         2.187211         3.490961
 H        -0.634162         3.435521         3.563710
 H         1.030220         2.593416         1.400559
 H         1.106788         1.445728         2.753641
