19
Iteration:  2517
 O        -2.689624         3.909610         1.529629
 C        -1.868373         2.777990         1.603392
 C        -1.495449         1.900962         0.405662
 C        -0.564656         0.959807         1.242398
 O         0.107702        -0.101477         0.614769
 C        -1.577201         0.444423         2.357853
 C        -1.964381         1.825329         2.842835
 C        -0.829081         2.736530         2.710942
 C         0.326690         1.860267         2.079348
 H        -3.617063         3.599513         1.308040
 H        -2.335557         1.266935        -0.040592
 H        -0.970074         2.514359        -0.296466
 H         0.514418         0.180041        -0.192345
 H        -2.394016        -0.108792         1.895596
 H        -1.144358        -0.355921         3.001947
 H        -2.787172         2.020285         3.502669
 H        -0.687856         3.555064         3.388883
 H         1.090593         2.424827         1.484796
 H         0.991334         1.313262         2.846258
