19
Iteration:  3304
 O        -2.743759         3.855686         1.469040
 C        -1.836518         2.843431         1.633172
 C        -1.365122         1.900718         0.566911
 C        -0.573064         0.830522         1.375110
 O         0.089344         0.025436         0.438559
 C        -1.643630         0.421851         2.379838
 C        -2.083298         1.831116         2.736226
 C        -0.807523         2.713105         2.662478
 C         0.403283         1.849271         2.078300
 H        -3.587719         3.616037         1.900209
 H        -2.215679         1.340670         0.157779
 H        -0.732929         2.545248        -0.228742
 H         0.856194         0.486209         0.309894
 H        -2.447706         0.034554         1.765968
 H        -1.335845        -0.183109         3.285162
 H        -2.818459         2.047856         3.482489
 H        -0.937463         3.209991         3.600293
 H         1.195720         2.271689         1.364505
 H         1.041493         1.255687         2.760671
