19
Iteration:   355charge 0 multiplicity 1
 O        -2.635084         4.002755         1.569310
 C        -1.911500         2.791147         1.687170
 C        -1.285144         2.077935         0.430263
 C        -0.523669         0.903654         1.255815
 O         0.241541        -0.092918         0.555776
 C        -1.678683         0.368681         2.150056
 C        -2.176890         1.700404         2.772690
 C        -0.914370         2.641089         2.766455
 C         0.280106         1.801038         2.180284
 H        -3.558887         3.906191         1.777045
 H        -2.003112         1.649946        -0.296394
 H        -0.584420         2.853910        -0.046405
 H         0.619938         0.192675        -0.241232
 H        -2.523952        -0.090733         1.653408
 H        -1.198966        -0.325211         2.865461
 H        -3.012967         1.916622         3.463346
 H        -0.957147         3.530074         3.424255
 H         0.863282         2.484220         1.613015
 H         0.858692         1.315200         2.989176
