19
Iteration:  3337charge 0 multiplicity 1
 O        -2.643777         3.881967         1.558958
 C        -1.939756         2.748699         1.643588
 C        -1.457945         2.048580         0.411636
 C        -0.547082         0.973168         1.169420
 O         0.096598        -0.187910         0.636350
 C        -1.522632         0.459184         2.292366
 C        -1.985338         1.732497         2.854695
 C        -0.911610         2.773555         2.670463
 C         0.328964         1.873668         2.132467
 H        -3.561504         3.706902         1.339060
 H        -2.161073         1.530019        -0.265633
 H        -0.802159         2.725603        -0.334265
 H         0.667961         0.133840        -0.129955
 H        -2.332410        -0.035060         1.780272
 H        -1.012884        -0.279799         2.964126
 H        -2.760262         1.906224         3.583972
 H        -0.936213         3.546359         3.403072
 H         1.112893         2.522462         1.580622
 H         0.644503         1.223986         2.977240
