19
Iteration:   466charge 0 multiplicity 1
 O        -2.736070         3.886412         1.670408
 C        -1.822179         2.728566         1.556731
 C        -1.209189         2.123921         0.346057
 C        -0.562391         1.036319         1.211259
 O         0.095553        -0.086871         0.683932
 C        -1.721221         0.457224         2.071195
 C        -2.099700         1.727229         2.684106
 C        -0.834275         2.590044         2.755639
 C         0.321970         1.819621         2.315393
 H        -3.584201         3.543141         2.066144
 H        -2.041157         1.606222        -0.258597
 H        -0.495137         2.464168        -0.487167
 H         0.815878         0.363303         0.127553
 H        -2.541547        -0.119429         1.533214
 H        -1.163207        -0.176954         2.762968
 H        -3.018489         1.897218         3.235514
 H        -0.740605         3.439516         3.401719
 H         0.876710         2.644499         1.841802
 H         0.940319         1.150974         2.942391
