19
Iteration:  3585
 O        -2.727470         3.911634         1.500426
 C        -1.919975         2.759140         1.653000
 C        -1.509838         1.864952         0.455467
 C        -0.558264         1.018942         1.233710
 O         0.079735        -0.109911         0.566621
 C        -1.576236         0.499997         2.298168
 C        -2.043139         1.812178         2.741642
 C        -0.760917         2.771913         2.662509
 C         0.406441         1.825907         2.108678
 H        -3.478829         3.632652         2.031136
 H        -2.352426         1.164624         0.251016
 H        -1.140668         2.479357        -0.308183
 H         1.053960        -0.092667         0.745113
 H        -2.365931        -0.172039         1.811470
 H        -0.934305         0.052901         3.064196
 H        -2.685872         1.906220         3.646209
 H        -0.607465         3.463967         3.531463
 H         1.147403         2.312674         1.575116
 H         0.943654         1.194976         2.842631
