19
Iteration:  2599
 O        -2.720673         3.966083         1.487732
 C        -1.912784         2.775978         1.665636
 C        -1.515677         1.937947         0.458888
 C        -0.518361         0.920125         1.265867
 O         0.204939        -0.072288         0.519046
 C        -1.676155         0.389071         2.337942
 C        -1.962029         1.777390         2.826997
 C        -0.749682         2.769930         2.654273
 C         0.337597         1.881518         2.140049
 H        -3.673495         3.745633         1.563760
 H        -2.380371         1.565172        -0.103536
 H        -0.908258         2.544671        -0.381329
 H        -0.001839        -1.064927         0.618632
 H        -2.339544         0.059708         1.574272
 H        -1.413358        -0.299063         3.096895
 H        -2.720179         1.796015         3.640606
 H        -0.477331         3.597796         3.284507
 H         1.095513         2.461662         1.626417
 H         0.722084         1.278871         2.885326
