19
Iteration:  1261charge 0 multiplicity 1
 O        -2.757204         3.846763         1.410379
 C        -1.916910         2.859052         1.708806
 C        -1.383689         2.043813         0.510411
 C        -0.562828         0.943894         1.322271
 O         0.017970         0.016110         0.413852
 C        -1.568039         0.394924         2.277509
 C        -1.939336         1.760680         2.767398
 C        -0.744848         2.759057         2.677730
 C         0.371183         1.800899         2.230600
 H        -3.678838         3.458160         1.397550
 H        -2.254790         1.494779         0.049042
 H        -0.712478         2.491714        -0.257632
 H         0.112322        -0.897622         0.873555
 H        -2.443555        -0.109173         1.807359
 H        -1.261000        -0.219307         3.145909
 H        -2.470709         1.861007         3.741793
 H        -0.774615         3.449787         3.497825
 H         1.213985         2.045657         1.597832
 H         0.710326         1.286302         3.121300
