19
Iteration:  3288charge 0 multiplicity 1
 O        -2.729301         3.837653         1.384262
 C        -1.869677         2.775309         1.682824
 C        -1.454607         1.955590         0.482701
 C        -0.544662         0.967472         1.253869
 O         0.086602        -0.012507         0.444709
 C        -1.664993         0.396236         2.332530
 C        -1.992281         1.804000         2.829869
 C        -0.721737         2.725686         2.747372
 C         0.312257         1.825407         2.202539
 H        -3.590495         3.664021         1.840809
 H        -2.348966         1.444914         0.056955
 H        -0.926677         2.418698        -0.288781
 H         1.002700         0.186380         0.287525
 H        -2.486022        -0.145318         1.815153
 H        -1.154513        -0.143262         3.109809
 H        -2.747241         2.046264         3.610622
 H        -0.367061         3.571709         3.357613
 H         1.008149         2.450353         1.617490
 H         0.797164         1.308366         3.051438
