19
Iteration:  2149
 O        -2.829696         3.897692         1.574808
 C        -1.909463         2.846534         1.690012
 C        -1.446983         1.994136         0.392300
 C        -0.548306         0.943565         1.208586
 O         0.191223        -0.170642         0.628290
 C        -1.541614         0.424491         2.312335
 C        -2.034699         1.806625         2.730002
 C        -0.700440         2.757238         2.719328
 C         0.387415         1.887490         2.040669
 H        -3.714921         3.558517         1.537011
 H        -2.450075         1.567130         0.069179
 H        -1.088870         2.700629        -0.443601
 H        -0.456907        -0.938186         0.544342
 H        -2.351181        -0.167733         1.777610
 H        -1.185335        -0.229451         3.100072
 H        -2.840950         1.954797         3.410576
 H        -0.699446         3.525054         3.466866
 H         1.147151         2.458037         1.489851
 H         1.073060         1.423564         2.792964
