19
Iteration:   392
 O        -2.510705         3.960918         1.472660
 C        -1.859022         2.715838         1.667143
 C        -1.433404         1.998568         0.553440
 C        -0.526335         0.963293         1.265062
 O         0.093840         0.140091         0.489908
 C        -1.583481         0.316425         2.211970
 C        -2.205348         1.704636         2.706735
 C        -0.945616         2.616864         2.789915
 C         0.322052         1.777898         2.315722
 H        -2.936627         3.802444         0.640676
 H        -2.238095         1.380141         0.038810
 H        -1.000232         2.592721        -0.260710
 H         0.661089         0.693874        -0.085275
 H        -2.336746        -0.347060         1.655425
 H        -1.077195        -0.381968         2.880828
 H        -3.027415         1.781916         3.399761
 H        -0.893290         3.472760         3.434798
 H         1.160624         2.270587         1.674292
 H         0.810850         1.402096         3.218177
