19
Iteration:  1675
 O        -2.733644         3.767591         1.359979
 C        -1.861915         2.669846         1.701000
 C        -1.280842         2.073661         0.481622
 C        -0.584990         0.983246         1.264644
 O         0.044727         0.067534         0.449546
 C        -1.667167         0.402897         2.419596
 C        -2.048675         1.821030         2.832539
 C        -0.726751         2.661978         2.882692
 C         0.305588         1.811730         2.138573
 H        -2.447549         3.968528         0.444951
 H        -2.087982         1.633848        -0.196586
 H        -0.622196         2.680883        -0.095602
 H        -0.619718        -0.163237        -0.289694
 H        -2.523480        -0.266181         2.159679
 H        -0.931754        -0.012064         3.233074
 H        -2.889335         2.073368         3.473771
 H        -0.628499         3.466739         3.544251
 H         0.970481         2.390357         1.401177
 H         0.855293         1.173123         2.840617
