19
Iteration:  3371
 O        -2.780947         3.918274         1.568692
 C        -1.889586         2.810392         1.650781
 C        -1.421102         1.986519         0.481783
 C        -0.513969         0.972575         1.271155
 O         0.115257        -0.149333         0.603263
 C        -1.611195         0.411645         2.293583
 C        -2.016006         1.756012         2.812234
 C        -0.857812         2.664861         2.732680
 C         0.372447         1.892196         2.032870
 H        -2.959607         4.029311         0.633001
 H        -2.206254         1.346427         0.036407
 H        -0.761717         2.490139        -0.378406
 H         0.717551         0.159773        -0.189652
 H        -2.439593        -0.047467         1.740131
 H        -1.241409        -0.333930         3.067745
 H        -2.896173         2.016283         3.429874
 H        -0.773712         3.331342         3.584502
 H         0.954329         2.666088         1.437941
 H         1.176720         1.506063         2.710675
