19
Iteration:  2679
 O        -2.701651         3.919411         1.398110
 C        -1.954609         2.713386         1.657310
 C        -1.380906         1.894213         0.507890
 C        -0.523870         0.950008         1.303925
 O        -0.027199         0.002291         0.420774
 C        -1.623576         0.408185         2.277249
 C        -1.986345         1.787414         2.895909
 C        -0.728698         2.747471         2.679823
 C         0.392253         1.908029         2.239839
 H        -3.606558         3.554651         1.318311
 H        -2.131991         1.390399        -0.121440
 H        -0.785905         2.623935        -0.095306
 H         0.536653        -0.695129         0.931661
 H        -2.421387        -0.107651         1.694694
 H        -1.255069        -0.412022         2.832518
 H        -2.679186         1.856762         3.743227
 H        -0.647169         3.703038         3.255453
 H         1.075580         2.311330         1.581493
 H         0.921076         1.532666         3.117806
