19
Iteration:  1462charge 0 multiplicity 1
 O        -2.733996         3.994561         1.709834
 C        -1.955348         2.751983         1.585353
 C        -1.484921         1.934907         0.407303
 C        -0.522729         0.922344         1.160993
 O         0.321069        -0.138532         0.633343
 C        -1.594386         0.440052         2.324498
 C        -2.134470         1.838075         2.706251
 C        -0.816211         2.676766         2.701852
 C         0.265335         1.814178         2.023944
 H        -2.030696         4.648354         1.853675
 H        -2.152092         1.574901        -0.293778
 H        -0.938180         2.604939        -0.298021
 H        -0.286422        -0.979087         0.613636
 H        -2.414832        -0.117801         1.805452
 H        -1.132371        -0.062298         3.193208
 H        -2.924200         2.117237         3.468538
 H        -0.652473         3.614414         3.203645
 H         0.832978         2.435257         1.405532
 H         0.896671         1.326738         2.750557
