19
Iteration:  1079charge 0 multiplicity 1
 O        -2.683672         4.103668         1.634304
 C        -2.019557         2.772602         1.559841
 C        -1.422604         1.932290         0.395362
 C        -0.537648         0.837741         1.322242
 O         0.199379        -0.073847         0.572231
 C        -1.666048         0.392374         2.220301
 C        -2.042357         1.766299         2.801897
 C        -0.809871         2.661480         2.709131
 C         0.327311         1.831659         2.103163
 H        -3.635778         4.023754         1.559890
 H        -2.124114         1.351228        -0.319282
 H        -0.617435         2.457282        -0.239098
 H         1.096608         0.110961         0.543586
 H        -2.387554        -0.213792         1.623175
 H        -1.320581        -0.258749         3.002171
 H        -2.719771         1.946935         3.686244
 H        -0.718749         3.510689         3.418924
 H         0.893306         2.464043         1.428366
 H         1.007834         1.202538         2.763432
