19
Iteration:  3560
 O        -2.834827         3.868723         1.393080
 C        -1.875343         2.782723         1.690490
 C        -1.413327         2.011289         0.399648
 C        -0.585824         0.910807         1.282926
 O         0.061678        -0.142861         0.476087
 C        -1.565087         0.366259         2.401864
 C        -1.950897         1.735458         2.879520
 C        -0.789217         2.793054         2.699794
 C         0.322671         1.945812         2.055325
 H        -2.822813         4.382677         2.225702
 H        -2.277279         1.619151        -0.159626
 H        -0.656179         2.647749        -0.009507
 H         0.754749        -0.544951         0.950728
 H        -2.329598         0.000233         1.753610
 H        -1.171534        -0.331347         3.122142
 H        -2.707838         1.799495         3.672815
 H        -0.517433         3.603405         3.357660
 H         1.026541         2.610336         1.499484
 H         1.021606         1.450974         2.862972
