19
Iteration:   902
 O        -2.688960         3.803572         1.323327
 C        -1.832385         2.807700         1.697620
 C        -1.332777         2.011999         0.480549
 C        -0.531909         1.030205         1.311893
 O         0.048180        -0.012205         0.395188
 C        -1.604936         0.344929         2.323181
 C        -2.155830         1.747426         2.748182
 C        -0.832153         2.692129         2.843581
 C         0.294266         1.788428         2.295550
 H        -2.583516         4.640889         1.773768
 H        -2.174683         1.511221        -0.062969
 H        -0.783501         2.685817        -0.267298
 H         0.607084         0.481586        -0.168511
 H        -2.330024        -0.106946         1.643712
 H        -1.170670        -0.268375         3.101440
 H        -2.986386         1.872414         3.497709
 H        -0.564569         3.269017         3.739153
 H         1.066918         2.390526         1.878259
 H         0.791168         1.182535         3.064615
