19
Iteration:   363
 O        -2.607006         4.073784         1.544135
 C        -1.947671         2.755033         1.658717
 C        -1.280653         2.019448         0.447277
 C        -0.488686         0.887552         1.146757
 O         0.260802        -0.090222         0.486572
 C        -1.678484         0.364431         2.204604
 C        -2.130563         1.737684         2.805103
 C        -0.960898         2.602719         2.822547
 C         0.203213         1.839549         2.234539
 H        -3.566153         3.914821         1.532028
 H        -2.026367         1.473328        -0.103916
 H        -0.672538         2.759412        -0.104589
 H         0.654350         0.235326        -0.284448
 H        -2.558619        -0.068947         1.780072
 H        -1.167833        -0.375716         2.871282
 H        -2.930934         1.844385         3.590253
 H        -0.744279         3.411743         3.574133
 H         0.913372         2.510186         1.773215
 H         0.726988         1.482004         3.156504
