19
Iteration:   459charge 0 multiplicity 1
 O        -2.741756         3.879782         1.679667
 C        -1.862694         2.788964         1.621022
 C        -1.206798         2.099751         0.349774
 C        -0.569838         1.009195         1.222131
 O         0.069324        -0.073811         0.697447
 C        -1.636374         0.447459         2.056541
 C        -2.093975         1.727488         2.645515
 C        -0.857008         2.613952         2.687792
 C         0.333239         1.809445         2.309040
 H        -3.693656         3.566244         1.730683
 H        -2.114967         1.729206        -0.155267
 H        -0.493302         2.705017        -0.204527
 H         0.874473         0.176852         0.249105
 H        -2.485287        -0.065124         1.543406
 H        -1.279779        -0.356178         2.728218
 H        -2.967096         1.906656         3.320216
 H        -0.837667         3.399063         3.475618
 H         1.212609         2.334217         1.764547
 H         0.940188         1.155794         2.930739
