19
Iteration:   530
 O        -2.530814         3.838240         1.276058
 C        -1.904366         2.735358         1.704471
 C        -1.362020         2.046698         0.537575
 C        -0.595812         0.992978         1.248503
 O         0.112725         0.099395         0.377687
 C        -1.637244         0.439110         2.196590
 C        -2.121988         1.686500         2.807922
 C        -0.915169         2.606444         2.915520
 C         0.245238         1.767024         2.327181
 H        -2.729967         4.297449         2.131371
 H        -2.136287         1.555557        -0.073212
 H        -0.673703         2.651277        -0.131172
 H         0.760476         0.628467        -0.068340
 H        -2.317612        -0.290511         1.696379
 H        -1.041031        -0.271550         2.810403
 H        -3.054567         1.610765         3.390760
 H        -0.786722         3.287976         3.765637
 H         1.066613         2.482678         2.142358
 H         0.772612         1.156782         3.120477
