19
Iteration:  3994
 O        -2.738490         3.833243         1.456685
 C        -1.953336         2.702009         1.670633
 C        -1.478948         1.932246         0.533369
 C        -0.583196         0.901271         1.303148
 O         0.150325         0.017557         0.426289
 C        -1.595875         0.437809         2.455010
 C        -1.931971         1.928067         2.900741
 C        -0.731215         2.779508         2.518143
 C         0.335015         1.804381         2.063530
 H        -3.696804         3.575724         1.376842
 H        -2.241419         1.541192        -0.123336
 H        -0.754445         2.438286        -0.134493
 H         0.085256        -0.802766         0.848143
 H        -2.462487         0.043526         1.937946
 H        -1.072564        -0.204933         3.106239
 H        -2.557215         2.032009         3.833535
 H        -0.545458         3.638532         3.147031
 H         1.067351         2.450149         1.622209
 H         0.544808         1.259097         3.025550
