19
Iteration:  4614charge 0 multiplicity 1
 O        -2.794618         3.784054         1.355207
 C        -1.875160         2.716296         1.666218
 C        -1.639508         1.826066         0.454298
 C        -0.668967         0.898095         1.265702
 O         0.047071         0.056746         0.441793
 C        -1.488709         0.455134         2.525366
 C        -1.793115         1.862931         2.966153
 C        -0.659885         2.801064         2.621498
 C         0.268395         1.879826         2.046202
 H        -2.548659         4.614443         1.816583
 H        -2.535092         1.226252         0.374539
 H        -1.306527         2.136530        -0.571338
 H         0.562117        -0.550798         0.903644
 H        -2.344788        -0.240807         2.198996
 H        -0.855309        -0.160595         3.169227
 H        -2.357082         2.297527         3.760316
 H        -0.495605         3.712974         3.222134
 H         0.922125         2.302016         1.225377
 H         0.871750         1.338685         2.703004
