19
Iteration:  1931charge 0 multiplicity 1
 O        -2.632553         3.818991         1.388140
 C        -1.881274         2.760427         1.684042
 C        -1.493116         1.897750         0.477345
 C        -0.569861         0.982877         1.247572
 O        -0.009949         0.072098         0.390462
 C        -1.515148         0.419601         2.435653
 C        -1.981758         1.788306         2.854401
 C        -0.853987         2.732211         2.754865
 C         0.367471         1.850289         2.182563
 H        -3.325089         3.581002         0.728561
 H        -2.327543         1.461450        -0.060540
 H        -1.040907         2.518346        -0.362012
 H         0.581712        -0.478063         0.835019
 H        -2.422153        -0.130311         1.988768
 H        -0.875430        -0.209383         3.063632
 H        -2.807829         1.988234         3.521792
 H        -0.573489         3.420504         3.526402
 H         1.087747         2.517492         1.687081
 H         0.791269         1.303469         3.081395
