19
Iteration:    36
 O        -2.899874         3.785180         1.396797
 C        -1.852609         2.803647         1.678275
 C        -1.264804         2.074996         0.465864
 C        -0.480939         0.963641         1.283915
 O        -0.060425        -0.058787         0.424348
 C        -1.524316         0.411010         2.346559
 C        -1.925824         1.771980         2.869975
 C        -0.782495         2.747757         2.719060
 C         0.356955         1.805803         2.193935
 H        -3.692143         3.578006         1.900901
 H        -2.034528         1.502063        -0.073109
 H        -0.729184         2.741624        -0.250519
 H         0.103577         0.364891        -0.404645
 H        -2.357203        -0.037815         1.870179
 H        -1.055194        -0.229209         3.150965
 H        -2.654090         1.840240         3.696798
 H        -0.707502         3.469217         3.535925
 H         1.134280         2.374596         1.745409
 H         0.719156         1.227319         3.102567
