19
Iteration:  1459
 O        -2.725188         3.977367         1.688723
 C        -1.950238         2.748889         1.571599
 C        -1.470789         1.956308         0.446971
 C        -0.517625         0.894188         1.200504
 O         0.312988        -0.126105         0.604070
 C        -1.599255         0.422457         2.322610
 C        -2.127873         1.855127         2.725518
 C        -0.810801         2.670653         2.704598
 C         0.257384         1.816648         2.003719
 H        -2.089740         4.688398         1.815264
 H        -2.318576         1.576465        -0.226433
 H        -0.919468         2.655209        -0.287314
 H        -0.162878        -0.899606         0.588002
 H        -2.397020        -0.180157         1.836436
 H        -1.262581        -0.028400         3.224041
 H        -2.989215         2.213562         3.344086
 H        -0.726063         3.609421         3.304549
 H         0.867562         2.435783         1.371095
 H         0.904407         1.334874         2.754056
