19
Iteration:   619
 O        -2.816977         3.917780         1.661506
 C        -1.845699         2.885081         1.604502
 C        -1.218757         2.044034         0.478541
 C        -0.567916         0.976402         1.288320
 O         0.158328        -0.050713         0.556509
 C        -1.706148         0.345709         2.036950
 C        -2.162368         1.741760         2.656002
 C        -0.852828         2.625246         2.833772
 C         0.329960         1.763663         2.262338
 H        -2.605865         4.247748         0.763256
 H        -2.063050         1.588170        -0.120800
 H        -0.520913         2.565977        -0.201950
 H         1.010772         0.270260         0.375342
 H        -2.469588        -0.027335         1.276155
 H        -1.450207        -0.383567         2.786156
 H        -2.841124         1.739933         3.490323
 H        -0.599646         3.305794         3.649628
 H         1.048232         2.496835         1.763935
 H         0.980906         1.140880         2.925356
