19
Iteration:  2516charge 0 multiplicity 1
 O        -2.689969         3.912246         1.533493
 C        -1.864350         2.773868         1.590035
 C        -1.490394         1.906978         0.411964
 C        -0.576268         0.958063         1.241298
 O         0.108966        -0.097649         0.617745
 C        -1.583392         0.442581         2.356321
 C        -1.955562         1.822399         2.844728
 C        -0.827474         2.734521         2.706784
 C         0.326053         1.854067         2.077990
 H        -3.593430         3.599450         1.290472
 H        -2.328222         1.280192        -0.033956
 H        -1.032335         2.522554        -0.316890
 H         0.540725         0.201942        -0.143408
 H        -2.408589        -0.161916         1.894056
 H        -1.116466        -0.339164         3.028736
 H        -2.801659         2.029251         3.501729
 H        -0.704731         3.554902         3.388050
 H         1.049633         2.459102         1.476373
 H         1.028046         1.313543         2.863637
