19
Iteration:  1560charge 0 multiplicity 1
 O        -2.739043         3.794976         1.448489
 C        -1.888735         2.748278         1.676216
 C        -1.384941         1.915537         0.541913
 C        -0.550122         0.988238         1.289930
 O         0.063558         0.017335         0.456866
 C        -1.579685         0.433171         2.312768
 C        -2.032924         1.821093         2.850199
 C        -0.762569         2.803016         2.662278
 C         0.331597         1.767370         2.241780
 H        -2.384331         4.269834         0.668277
 H        -2.120135         1.364721        -0.023709
 H        -0.840060         2.553466        -0.238440
 H        -0.609532        -0.168841        -0.309176
 H        -2.466558         0.000815         1.839417
 H        -1.045294        -0.276939         2.878770
 H        -2.669680         2.143583         3.661124
 H        -0.776300         3.588234         3.409535
 H         1.206135         2.134791         1.799628
 H         0.599123         1.074413         3.043808
