19
Iteration:  4423
 O        -2.777139         3.812131         1.535887
 C        -1.931939         2.655014         1.617401
 C        -1.607912         1.784044         0.451020
 C        -0.626470         0.867363         1.279201
 O         0.071267        -0.018609         0.542430
 C        -1.533553         0.542192         2.436390
 C        -1.860650         1.938346         2.984284
 C        -0.661116         2.738882         2.451673
 C         0.341859         1.921074         1.946528
 H        -2.744120         4.273779         2.371597
 H        -2.547588         1.370686         0.064292
 H        -1.095227         2.339578        -0.301245
 H         0.800921        -0.484644         1.151251
 H        -2.387801         0.137860         1.900511
 H        -1.342460        -0.248675         3.237993
 H        -2.552963         2.277042         3.690620
 H        -0.483439         3.784437         2.763143
 H         0.911308         2.408264         1.234524
 H         0.964846         1.478985         2.739834
