19
Iteration:  4926charge 0 multiplicity 1
 O        -2.920321         3.718982         1.599023
 C        -1.920452         2.727422         1.630161
 C        -1.524838         1.883436         0.442500
 C        -0.597419         0.932895         1.254961
 O         0.118485        -0.104226         0.480370
 C        -1.623896         0.528145         2.402576
 C        -1.932661         1.950111         2.832140
 C        -0.631552         2.838973         2.587598
 C         0.420247         1.854899         2.049584
 H        -2.506804         4.572216         1.341300
 H        -2.359198         1.287419        -0.023530
 H        -0.814855         2.265907        -0.329426
 H         0.442334        -0.744567         1.077357
 H        -2.479887         0.152681         1.890181
 H        -1.294609        -0.179766         3.251009
 H        -2.514985         2.296042         3.711582
 H        -0.312656         3.738776         3.139073
 H         1.194318         2.341773         1.510853
 H         0.868386         1.239431         2.873534
