19
Iteration:  1139
 O        -2.808058         3.924539         1.422144
 C        -1.908825         2.749311         1.673921
 C        -1.290127         2.020991         0.559455
 C        -0.489012         0.925755         1.342879
 O        -0.046566        -0.070150         0.435926
 C        -1.645356         0.406103         2.252076
 C        -2.035783         1.809849         2.876109
 C        -0.767381         2.670497         2.638862
 C         0.412098         1.868266         2.167093
 H        -3.715960         3.543452         1.278952
 H        -1.939429         1.469690        -0.087920
 H        -0.592361         2.580913        -0.032368
 H         0.872153         0.010306         0.296387
 H        -2.380428        -0.223402         1.759941
 H        -1.169362        -0.186430         3.100928
 H        -2.588827         1.934446         3.786604
 H        -0.572752         3.393317         3.437702
 H         1.252989         2.419977         1.706209
 H         0.866943         1.382893         3.004218
