19
Iteration:  4596
 O        -2.751491         3.877725         1.397806
 C        -1.926053         2.793354         1.654893
 C        -1.635851         1.786395         0.596928
 C        -0.614096         0.886829         1.292001
 O         0.060265        -0.047137         0.416068
 C        -1.380663         0.421327         2.540981
 C        -2.013291         1.883337         2.911327
 C        -0.753681         2.764092         2.603799
 C         0.349196         1.912216         1.874116
 H        -2.405379         4.693717         1.839578
 H        -2.526649         1.306006         0.074788
 H        -1.137166         2.371746        -0.237954
 H         0.518048        -0.691027         0.895812
 H        -2.124166        -0.348709         2.462546
 H        -0.719178         0.221964         3.421441
 H        -2.763258         1.698440         3.725278
 H        -0.489689         3.577456         3.299294
 H         1.035795         2.475187         1.212406
 H         1.030593         1.436590         2.692163
