19
Iteration:  1255charge 0 multiplicity 1
 O        -2.777291         3.839800         1.464781
 C        -1.854870         2.835300         1.742245
 C        -1.379217         2.066053         0.494896
 C        -0.580638         0.960604         1.314502
 O         0.069367        -0.033113         0.441522
 C        -1.572356         0.388129         2.272131
 C        -2.030997         1.809621         2.762499
 C        -0.734363         2.733649         2.650711
 C         0.352252         1.811907         2.199623
 H        -3.586417         3.357608         1.224267
 H        -2.215066         1.565800        -0.003386
 H        -0.831959         2.596779        -0.282213
 H        -0.091247        -0.765113         0.963554
 H        -2.439075        -0.107679         1.801951
 H        -1.017032        -0.245971         2.990742
 H        -2.557498         1.985455         3.660302
 H        -0.642045         3.559983         3.381004
 H         1.221216         2.116256         1.573470
 H         0.766755         1.178349         3.054632
