19
Iteration:  4968charge 0 multiplicity 1
 O        -2.831306         3.839500         1.478184
 C        -1.911588         2.788883         1.694445
 C        -1.428835         1.895496         0.455139
 C        -0.536626         0.894885         1.308699
 O        -0.064901        -0.063347         0.443534
 C        -1.520875         0.474056         2.440725
 C        -1.967599         1.868417         2.882255
 C        -0.672162         2.756540         2.612740
 C         0.375789         1.885207         2.050463
 H        -3.283828         3.511617         0.704958
 H        -2.265200         1.458880        -0.143884
 H        -0.906566         2.580211        -0.230443
 H         0.588004        -0.598376         0.895529
 H        -2.306471        -0.156515         2.093388
 H        -0.971599        -0.081203         3.274198
 H        -2.656956         2.096193         3.732402
 H        -0.394206         3.519870         3.352687
 H         1.173709         2.387145         1.415671
 H         0.971524         1.506151         2.931466
