19
Iteration:  1998
 O        -2.772716         3.870276         1.663921
 C        -1.878208         2.745398         1.593381
 C        -1.450200         1.986092         0.373305
 C        -0.614998         0.947752         1.141356
 O         0.175014        -0.069274         0.787293
 C        -1.516023         0.485273         2.225266
 C        -2.013972         1.804699         2.781813
 C        -0.726600         2.761109         2.577579
 C         0.316511         1.844230         2.103233
 H        -3.601953         3.504835         1.955718
 H        -2.257186         1.530313        -0.140666
 H        -1.042849         2.572743        -0.462499
 H        -0.107436        -0.596200        -0.063500
 H        -2.433624        -0.174149         1.941296
 H        -0.919103        -0.105888         2.925328
 H        -2.905241         2.040786         3.421105
 H        -0.640939         3.447884         3.427882
 H         1.043437         2.366146         1.487833
 H         0.715547         1.111120         2.856560
