19
Iteration:  1422charge 0 multiplicity 1
 O        -2.753770         3.820143         1.366340
 C        -1.906207         2.718798         1.698092
 C        -1.402708         1.973954         0.504885
 C        -0.559568         0.955155         1.321383
 O         0.060243         0.063568         0.449392
 C        -1.605753         0.409876         2.261848
 C        -1.938665         1.844892         2.914561
 C        -0.783040         2.684778         2.783346
 C         0.339178         1.818705         2.197264
 H        -2.226403         4.405845         0.775552
 H        -2.227527         1.382947        -0.028179
 H        -0.810893         2.600300        -0.156965
 H        -0.630634        -0.536368         0.174065
 H        -2.411578         0.000579         1.662494
 H        -1.236694        -0.387147         2.980139
 H        -2.768663         2.013576         3.574783
 H        -0.606826         3.522936         3.414619
 H         1.207013         2.371697         1.661586
 H         0.765469         1.017002         2.827158
