19
Iteration:  4623charge 0 multiplicity 1
 O        -2.811030         3.714204         1.374299
 C        -1.894358         2.710220         1.641453
 C        -1.623036         1.842212         0.448537
 C        -0.607626         0.947196         1.312704
 O         0.020008         0.029841         0.442613
 C        -1.599712         0.417228         2.493099
 C        -1.785317         1.915100         3.031108
 C        -0.653046         2.817398         2.565115
 C         0.395231         1.891765         2.008803
 H        -2.567696         4.527488         1.855771
 H        -2.460743         1.214160         0.228661
 H        -1.470652         2.432758        -0.437134
 H         0.652159        -0.519480         0.810100
 H        -2.622615         0.038308         2.188467
 H        -1.137288        -0.198472         3.250432
 H        -2.496571         1.934252         3.807387
 H        -0.406498         3.727623         3.120895
 H         1.129606         2.350363         1.335165
 H         0.921771         1.493132         2.858351
