19
Iteration:  1375charge 0 multiplicity 1
 O        -2.824328         3.837697         1.586486
 C        -1.796646         2.779837         1.602543
 C        -1.287124         2.001525         0.411301
 C        -0.596064         0.920112         1.288027
 O         0.052844        -0.047481         0.587129
 C        -1.599133         0.454982         2.319321
 C        -1.999891         1.780392         2.781100
 C        -0.793811         2.681811         2.707148
 C         0.319905         1.808277         2.164498
 H        -2.906233         4.476228         0.827842
 H        -2.040667         1.532396        -0.140803
 H        -0.510130         2.537562        -0.180741
 H        -0.082049         0.201611        -0.433276
 H        -2.572651         0.078414         1.880584
 H        -1.185079        -0.298172         3.027401
 H        -3.005747         1.827766         3.272409
 H        -0.559619         3.471189         3.465729
 H         0.865794         2.338300         1.375497
 H         1.047801         1.462560         2.964916
