19
Iteration:  3444charge 0 multiplicity 1
 O        -2.776662         3.832656         1.437287
 C        -1.863162         2.819247         1.683519
 C        -1.394806         1.985077         0.475650
 C        -0.510444         0.901351         1.259454
 O         0.061266        -0.151773         0.491945
 C        -1.568460         0.427104         2.317564
 C        -2.039294         1.726366         2.830313
 C        -0.844825         2.782750         2.756570
 C         0.349201         1.958481         2.055771
 H        -2.924899         4.451191         2.162383
 H        -2.335156         1.534430         0.145674
 H        -0.925979         2.622431        -0.224795
 H         0.898259        -0.428282         0.895789
 H        -2.321681        -0.118955         1.689521
 H        -1.119260        -0.252242         3.031806
 H        -2.939354         2.004149         3.378171
 H        -0.755463         3.515960         3.545111
 H         0.976043         2.504225         1.339902
 H         1.026942         1.463712         2.725127
