19
Iteration:     5charge 0 multiplicity 1
 O        -2.766481         3.793608         1.453628
 C        -1.926090         2.705639         1.711108
 C        -1.432819         1.966376         0.485803
 C        -0.571619         0.934141         1.246778
 O         0.053378         0.020462         0.385740
 C        -1.548392         0.433550         2.279542
 C        -2.002989         1.835008         2.835602
 C        -0.768387         2.697037         2.727833
 C         0.351350         1.892350         2.138199
 H        -3.016055         4.137292         2.339665
 H        -2.202745         1.483856        -0.143651
 H        -0.792111         2.681732        -0.099865
 H         0.696918        -0.425932         1.015937
 H        -2.295236        -0.225655         1.845499
 H        -1.058755        -0.212444         3.053293
 H        -2.789696         1.939757         3.592373
 H        -0.726638         3.546811         3.408832
 H         1.070096         2.570125         1.662294
 H         0.980857         1.310792         2.892329
