19
Iteration:  1048charge 0 multiplicity 1
 O        -2.505147         3.882124         1.386708
 C        -1.895343         2.710279         1.671636
 C        -1.478671         1.964109         0.470152
 C        -0.560060         0.967271         1.263298
 O         0.079760         0.026171         0.480275
 C        -1.631884         0.367982         2.307682
 C        -2.134256         1.713248         2.824447
 C        -0.822965         2.735527         2.826312
 C         0.335027         1.879583         2.216504
 H        -3.498341         3.837975         1.335367
 H        -2.459409         1.543787        -0.013169
 H        -0.931728         2.603702        -0.256692
 H         0.723773         0.414000        -0.235487
 H        -2.215508        -0.367957         1.734350
 H        -1.096087        -0.225255         3.077256
 H        -2.983343         1.939277         3.540630
 H        -0.833774         3.593799         3.523921
 H         1.204790         2.378856         1.809540
 H         0.835436         1.095147         2.763657
