19
Iteration:  4817
 O        -2.941134         3.680067         1.538243
 C        -1.870626         2.808712         1.666732
 C        -1.525754         1.895769         0.453011
 C        -0.588801         0.918358         1.206008
 O         0.086313        -0.095789         0.529804
 C        -1.571296         0.519135         2.390537
 C        -1.857931         1.924969         2.958389
 C        -0.661549         2.804110         2.658620
 C         0.334438         1.832759         1.927367
 H        -2.703908         4.399641         0.936587
 H        -2.392710         1.395472        -0.066900
 H        -0.955053         2.538334        -0.272232
 H         0.845027        -0.285919         1.086505
 H        -2.474073         0.104240         1.987804
 H        -1.070810        -0.172261         3.142081
 H        -2.449131         2.343887         3.797673
 H        -0.375479         3.764407         3.176928
 H         1.051831         2.335902         1.366701
 H         0.764579         1.173794         2.738284
