19
Iteration:  1835charge 0 multiplicity 1
 O        -2.832800         3.945269         1.391643
 C        -1.898123         2.801371         1.656920
 C        -1.400474         1.971587         0.501636
 C        -0.585319         0.901075         1.315667
 O         0.170978        -0.022244         0.517038
 C        -1.570501         0.362550         2.345127
 C        -2.044022         1.834260         2.817704
 C        -0.763211         2.736402         2.673969
 C         0.393134         1.804785         2.101571
 H        -3.364107         3.937593         2.233964
 H        -1.963823         1.501270        -0.264929
 H        -0.622140         2.546433        -0.044960
 H        -0.493388        -0.702610         0.121064
 H        -2.402418        -0.171713         1.846932
 H        -1.089332        -0.285537         3.052269
 H        -2.593661         1.951457         3.765258
 H        -0.729713         3.554047         3.372662
 H         1.238235         2.150476         1.520188
 H         0.710373         1.215917         3.010265
