19
Iteration:  2151charge 0 multiplicity 1
 O        -2.832499         3.907172         1.565049
 C        -1.905949         2.830397         1.697978
 C        -1.441475         1.996763         0.415063
 C        -0.534542         0.928685         1.209965
 O         0.170350        -0.166686         0.616048
 C        -1.533311         0.433515         2.324221
 C        -2.038730         1.792555         2.714089
 C        -0.701911         2.752170         2.710120
 C         0.387898         1.898203         2.056182
 H        -3.734050         3.564098         1.521135
 H        -2.499187         1.554974         0.074304
 H        -1.049130         2.655566        -0.424416
 H        -0.383022        -0.898655         0.505935
 H        -2.317726        -0.130170         1.748119
 H        -1.192367        -0.221386         3.101715
 H        -2.809694         1.986370         3.429137
 H        -0.663455         3.557869         3.451343
 H         1.095464         2.467433         1.495010
 H         1.050869         1.434130         2.782052
