19
Iteration:   240charge 0 multiplicity 1
 O        -2.472555         4.105700         1.556627
 C        -2.013918         2.815964         1.724490
 C        -1.477712         1.909517         0.475868
 C        -0.490433         0.934365         1.229306
 O         0.284693        -0.018170         0.382200
 C        -1.621259         0.355931         2.230907
 C        -2.237438         1.636799         2.815736
 C        -0.948048         2.601889         2.744255
 C         0.293648         1.947653         2.194878
 H        -3.271991         3.953643         1.029929
 H        -2.401267         1.264073         0.094860
 H        -1.041041         2.506811        -0.341190
 H         0.765728        -0.585154         0.943478
 H        -2.449073        -0.244968         1.689239
 H        -1.232383        -0.316575         3.013712
 H        -2.717671         1.548655         3.782741
 H        -0.874460         3.476157         3.410909
 H         0.986326         2.529877         1.492420
 H         0.869660         1.454909         2.984173
