19
Iteration:  4650charge 0 multiplicity 1
 O        -2.955877         3.732956         1.471711
 C        -1.940988         2.771033         1.679961
 C        -1.361195         1.912927         0.499707
 C        -0.536550         0.881833         1.351805
 O        -0.057283        -0.181874         0.459354
 C        -1.528860         0.476455         2.404346
 C        -1.884645         1.957823         2.912854
 C        -0.639745         2.835174         2.586757
 C         0.350218         1.932734         1.934489
 H        -2.822787         4.460849         2.089126
 H        -2.221462         1.333157         0.039427
 H        -0.881966         2.571408        -0.287269
 H         0.669400        -0.656822         0.746386
 H        -2.370033        -0.072605         1.963678
 H        -1.048416        -0.057937         3.264429
 H        -2.461260         2.110514         3.868886
 H        -0.457105         3.647232         3.291458
 H         0.872568         2.422545         1.096024
 H         1.094423         1.601467         2.693765
