19
Iteration:   989
 O        -2.716866         3.843580         1.686507
 C        -1.878276         2.757789         1.596336
 C        -1.276775         2.062707         0.418773
 C        -0.534061         0.942054         1.229104
 O         0.136296        -0.143578         0.636687
 C        -1.708192         0.489428         2.191317
 C        -2.021532         1.771677         2.791140
 C        -0.841869         2.738156         2.604749
 C         0.304055         1.840255         2.228248
 H        -3.516389         3.783682         1.114404
 H        -2.104603         1.776074        -0.287832
 H        -0.508814         2.711983        -0.168242
 H         0.102526        -0.104483        -0.313589
 H        -2.501586         0.039549         1.563008
 H        -1.345476        -0.294481         2.861080
 H        -2.772893         1.847824         3.543071
 H        -0.682992         3.559547         3.282657
 H         0.976146         2.431048         1.609794
 H         0.804586         1.222240         3.034127
