19
Iteration:   108charge 0 multiplicity 1
 O        -2.557014         4.069365         1.654163
 C        -1.945375         2.783438         1.642671
 C        -1.542865         1.929078         0.495249
 C        -0.525345         0.919364         1.303091
 O         0.184949         0.024840         0.514184
 C        -1.561944         0.264585         2.286266
 C        -2.064247         1.652710         2.687735
 C        -0.891554         2.726332         2.601512
 C         0.270237         1.902576         2.103466
 H        -3.430170         4.054165         1.288521
 H        -2.431668         1.344346         0.181451
 H        -1.119107         2.376031        -0.394796
 H         0.937315        -0.213276         1.024133
 H        -2.223504        -0.412200         1.676189
 H        -1.013906        -0.166219         3.102690
 H        -2.828143         1.719830         3.466992
 H        -0.854184         3.341430         3.470198
 H         0.930390         2.351646         1.294157
 H         0.801565         1.372108         2.868069
