19
Iteration:   783charge 0 multiplicity 1
 O        -2.543556         3.863273         1.435586
 C        -1.854267         2.687441         1.674282
 C        -1.276074         2.057226         0.483682
 C        -0.604990         0.988702         1.229877
 O         0.087288         0.037125         0.366765
 C        -1.699096         0.347537         2.288982
 C        -2.083786         1.681850         2.838330
 C        -0.952145         2.664294         2.865124
 C         0.278885         1.880990         2.304347
 H        -3.146326         3.723421         0.658060
 H        -1.952464         1.522550        -0.165625
 H        -0.671147         2.704031        -0.075481
 H         0.795998         0.629141        -0.130889
 H        -2.608044        -0.084226         1.739450
 H        -1.237691        -0.289939         3.022647
 H        -3.031635         1.963351         3.355259
 H        -0.786017         3.496889         3.565224
 H         1.214903         2.369599         1.959949
 H         0.698002         1.260845         3.130389
