19
Iteration:   523charge 0 multiplicity 1
 O        -2.555330         3.911700         1.253613
 C        -1.931440         2.712027         1.713910
 C        -1.352869         2.056019         0.495375
 C        -0.610303         1.013666         1.260087
 O         0.103826         0.130166         0.428637
 C        -1.576193         0.378532         2.236548
 C        -2.115411         1.623808         2.815110
 C        -0.875017         2.579606         2.878654
 C         0.272025         1.747040         2.338178
 H        -2.933408         4.419812         1.970925
 H        -2.278694         1.682123        -0.112334
 H        -0.595125         2.608102        -0.147502
 H         0.743127         0.564134        -0.078130
 H        -2.391316         0.023387         1.509582
 H        -1.131588        -0.408262         2.847914
 H        -2.931557         1.821484         3.538365
 H        -0.960186         3.220490         3.769464
 H         1.026421         2.537994         2.061200
 H         0.625288         0.932367         2.971523
