19
Iteration:  1703
 O        -2.827489         3.914836         1.455267
 C        -1.940629         2.787991         1.697557
 C        -1.349854         2.016667         0.528642
 C        -0.496403         0.931760         1.300028
 O         0.109974        -0.132272         0.496790
 C        -1.644068         0.382671         2.224251
 C        -1.969433         1.800063         2.852117
 C        -0.767749         2.764475         2.751438
 C         0.352977         1.807133         2.201141
 H        -2.672359         4.041859         0.485710
 H        -2.168190         1.537623        -0.009903
 H        -0.729922         2.668486        -0.189127
 H        -0.196733        -0.004142        -0.493340
 H        -2.500560        -0.042261         1.701413
 H        -1.242276        -0.293995         2.917517
 H        -2.654704         1.972142         3.699924
 H        -0.785834         3.590977         3.482763
 H         1.110034         2.276561         1.591775
 H         0.778796         1.241535         3.038431
