19
Iteration:  3492
 O        -2.723958         3.917959         1.518046
 C        -1.929514         2.823912         1.640457
 C        -1.531453         1.924231         0.475477
 C        -0.501109         0.915713         1.252309
 O         0.180425        -0.050090         0.439113
 C        -1.527700         0.428949         2.318646
 C        -2.040748         1.779269         2.858076
 C        -0.784623         2.752241         2.621808
 C         0.278270         1.866078         2.178495
 H        -3.638094         3.624646         1.267850
 H        -2.427427         1.469824         0.084458
 H        -0.875502         2.516003        -0.217701
 H         0.321291        -0.822542         1.004689
 H        -2.314133        -0.037599         1.823288
 H        -1.080940        -0.161884         3.107886
 H        -2.619484         1.806418         3.774013
 H        -0.507969         3.641602         3.191816
 H         1.181447         2.356933         1.625567
 H         0.779409         1.245685         2.983586
