19
Iteration:  2113charge 0 multiplicity 1
 O        -2.705717         3.887948         1.640077
 C        -1.964933         2.697380         1.650584
 C        -1.413793         1.941704         0.384294
 C        -0.607242         0.900789         1.293448
 O         0.257531        -0.022902         0.651771
 C        -1.673723         0.354357         2.293274
 C        -1.979043         1.861346         2.837153
 C        -0.784506         2.819843         2.581714
 C         0.372925         1.883293         1.993673
 H        -3.638824         3.691721         1.606843
 H        -2.130360         1.526006        -0.231781
 H        -0.825505         2.666421        -0.158581
 H        -0.388213        -0.682986         0.209108
 H        -2.598210         0.058063         1.783589
 H        -1.367987        -0.391376         3.054891
 H        -2.821855         1.846862         3.564088
 H        -0.617704         3.701314         3.201984
 H         1.045594         2.335165         1.192966
 H         0.808321         1.310217         2.817128
