19
Iteration:  2992charge 0 multiplicity 1
 O        -2.783471         3.908076         1.643324
 C        -1.834081         2.829540         1.647244
 C        -1.368742         1.956041         0.407128
 C        -0.500128         0.842878         1.310524
 O         0.158650        -0.142481         0.490742
 C        -1.684224         0.437398         2.219524
 C        -2.082929         1.840923         2.751832
 C        -0.813924         2.759813         2.706373
 C         0.381807         1.907919         2.115329
 H        -3.547183         3.381764         1.412873
 H        -2.305952         1.484489        -0.185739
 H        -0.710981         2.568372        -0.177039
 H         0.524474        -0.783734         1.165155
 H        -2.378446         0.086687         1.460131
 H        -1.668569        -0.285175         3.100112
 H        -2.811137         2.219364         3.503563
 H        -0.672319         3.501983         3.486454
 H         1.054948         2.520066         1.382086
 H         1.019465         1.566338         2.921796
