19
Iteration:  1566
 O        -2.729934         3.823926         1.482331
 C        -1.925156         2.748834         1.621335
 C        -1.389185         1.952965         0.511025
 C        -0.510789         0.976489         1.251166
 O         0.091710        -0.041391         0.478462
 C        -1.611933         0.435519         2.319856
 C        -2.024405         1.823230         2.857132
 C        -0.753573         2.754054         2.678573
 C         0.312705         1.831088         2.215132
 H        -2.440733         4.394178         0.766734
 H        -2.200190         1.261105         0.102686
 H        -0.891350         2.543746        -0.228948
 H        -0.579195        -0.134046        -0.150418
 H        -2.446953        -0.022726         1.740667
 H        -1.266326        -0.331151         3.114094
 H        -2.762230         1.907490         3.683546
 H        -0.642781         3.511894         3.447866
 H         1.256716         2.350455         1.802832
 H         0.691512         1.133915         3.010444
