19
Iteration:  2349
 O        -2.666390         4.021189         1.523927
 C        -1.918772         2.773037         1.652420
 C        -1.518758         1.898643         0.508854
 C        -0.578222         0.887516         1.274559
 O         0.126633        -0.096183         0.463726
 C        -1.446204         0.387701         2.430096
 C        -2.076742         1.745473         2.859591
 C        -0.854135         2.798465         2.641193
 C         0.305572         1.878033         2.008985
 H        -3.521851         3.870510         0.996340
 H        -2.367604         1.417055        -0.119324
 H        -0.834638         2.295877        -0.186097
 H         0.737785        -0.681415         1.043265
 H        -2.123999        -0.406653         1.992376
 H        -0.850467        -0.102307         3.202114
 H        -2.741891         1.932560         3.685158
 H        -0.699678         3.722001         3.177117
 H         0.639277         2.567236         1.226840
 H         1.122088         1.565359         2.781007
