19
Iteration:   789charge 0 multiplicity 1
 O        -2.536798         3.847689         1.456227
 C        -1.870808         2.709777         1.677304
 C        -1.317261         2.047512         0.482218
 C        -0.534909         0.972891         1.302141
 O         0.081315         0.038033         0.394482
 C        -1.660459         0.377971         2.230720
 C        -2.104950         1.693852         2.805084
 C        -0.942134         2.652121         2.838107
 C         0.231043         1.853169         2.258011
 H        -2.956957         3.835421         0.616226
 H        -2.124824         1.661198        -0.202580
 H        -0.701919         2.912916        -0.004894
 H         0.732677         0.667133         0.099693
 H        -2.430123        -0.224188         1.810573
 H        -1.214899        -0.258354         3.041551
 H        -2.890985         1.958120         3.469350
 H        -0.762712         3.444134         3.547056
 H         1.171024         2.229912         1.834261
 H         0.537218         1.311236         3.164954
