19
Iteration:  1811charge 0 multiplicity 1
 O        -2.696374         3.730554         1.306999
 C        -1.796792         2.707433         1.671679
 C        -1.399565         1.975657         0.492899
 C        -0.599671         0.922128         1.286738
 O         0.097217         0.123489         0.337923
 C        -1.643266         0.430842         2.422117
 C        -2.021478         1.874716         2.838340
 C        -0.779716         2.723356         2.791249
 C         0.283445         1.816390         2.208102
 H        -2.836043         4.222891         2.140427
 H        -2.149756         1.431808        -0.033838
 H        -0.822127         2.479279        -0.332440
 H        -0.117851        -0.879053         0.529525
 H        -2.630017        -0.138920         2.143504
 H        -1.107953        -0.149484         3.176769
 H        -2.781576         1.939998         3.614383
 H        -0.649738         3.619348         3.359250
 H         0.905442         2.502173         1.598805
 H         0.939837         1.305603         3.045740
