19
Iteration:  3573
 O        -2.804412         3.916422         1.444650
 C        -1.908886         2.835272         1.626810
 C        -1.471985         1.966957         0.479959
 C        -0.507612         0.919382         1.257925
 O         0.038981        -0.135258         0.552033
 C        -1.502706         0.422420         2.248921
 C        -1.950755         1.811215         2.845062
 C        -0.789645         2.685607         2.673684
 C         0.344551         1.895288         2.116269
 H        -3.333121         4.130959         2.246623
 H        -2.352012         1.434225         0.000753
 H        -1.068037         2.356111        -0.398653
 H         0.962882        -0.275656         0.966700
 H        -2.330672        -0.245410         1.885403
 H        -1.040470        -0.259089         2.980761
 H        -2.689031         2.017405         3.672411
 H        -0.635304         3.549611         3.349059
 H         0.989438         2.430575         1.503191
 H         0.860077         1.331531         2.963361
