19
Iteration:  4996charge 0 multiplicity 1
 O        -2.610372         3.953934         1.336135
 C        -1.971110         2.781699         1.751035
 C        -1.535881         1.848809         0.478837
 C        -0.587651         0.909960         1.219925
 O        -0.025697        -0.158352         0.517093
 C        -1.384516         0.400599         2.345774
 C        -1.959294         1.749320         2.970424
 C        -0.803772         2.776672         2.778230
 C         0.318890         2.010198         1.954418
 H        -3.568043         3.871953         1.448784
 H        -2.396699         1.529512        -0.097632
 H        -0.971193         2.571772        -0.142963
 H         0.575493        -0.510169         1.116047
 H        -2.315070        -0.163514         1.954012
 H        -0.827157        -0.154862         3.077106
 H        -2.709695         1.759302         3.785642
 H        -0.716209         3.726124         3.398964
 H         0.835646         2.715026         1.282225
 H         1.027373         1.597889         2.645366
