19
Iteration:  3151charge 0 multiplicity 1
 O        -2.656321         3.818491         1.482065
 C        -1.771041         2.740407         1.666289
 C        -1.377110         1.940036         0.481486
 C        -0.480672         0.939520         1.272011
 O         0.130552        -0.000108         0.437871
 C        -1.673437         0.470470         2.365638
 C        -2.100323         1.791989         2.696143
 C        -0.874004         2.699732         2.802857
 C         0.317243         1.928843         2.114698
 H        -3.491486         3.664809         1.909162
 H        -2.098396         1.343284         0.041352
 H        -0.882360         2.635500        -0.267968
 H        -0.440007        -0.835472         0.493486
 H        -2.449881        -0.240569         1.940874
 H        -1.027816        -0.035154         3.202457
 H        -3.008516         2.079359         3.282560
 H        -0.668097         3.527361         3.494842
 H         0.825134         2.711514         1.616033
 H         0.854147         1.328436         2.881770
