19
Iteration:  3265charge 0 multiplicity 1
 O        -2.683338         3.921922         1.424422
 C        -2.018103         2.669029         1.655289
 C        -1.403544         2.012660         0.434367
 C        -0.535780         1.018511         1.174571
 O         0.037639        -0.147298         0.551715
 C        -1.525480         0.484383         2.304716
 C        -1.935671         1.748254         2.924672
 C        -0.877293         2.729255         2.725231
 C         0.345769         1.841771         2.116324
 H        -3.553947         3.739987         1.798260
 H        -2.245946         1.669397        -0.188622
 H        -0.803252         2.616008        -0.147106
 H         1.055036         0.057177         0.422677
 H        -2.464127         0.053977         1.833128
 H        -0.870842        -0.241854         2.834273
 H        -2.673250         1.800596         3.748659
 H        -0.760159         3.537690         3.451303
 H         1.131431         2.425035         1.657070
 H         0.591333         1.300649         3.054893
