19
Iteration:   841charge 0 multiplicity 1
 O        -2.691956         3.850018         1.733861
 C        -1.867745         2.822373         1.648858
 C        -1.356764         2.085569         0.420483
 C        -0.562793         0.985110         1.207354
 O         0.210903        -0.210716         0.668768
 C        -1.675829         0.443247         2.079865
 C        -2.136300         1.728998         2.639981
 C        -0.878121         2.704729         2.734379
 C         0.293605         1.837685         2.209814
 H        -2.856824         4.270276         0.913344
 H        -2.107288         1.627158        -0.238681
 H        -0.612502         2.631854        -0.172055
 H         0.931026         0.309177         0.426343
 H        -2.522781         0.006719         1.477253
 H        -1.481408        -0.383910         2.838270
 H        -2.883821         1.923355         3.372379
 H        -0.672063         3.557527         3.362404
 H         0.803073         2.566772         1.458444
 H         0.981921         1.360308         2.957093
