19
Iteration:  2710charge 0 multiplicity 1
 O        -2.779490         3.835597         1.473735
 C        -1.791656         2.788973         1.615294
 C        -1.358956         1.895887         0.452766
 C        -0.542116         0.910482         1.261927
 O         0.088666        -0.006012         0.424238
 C        -1.697263         0.493908         2.383983
 C        -2.008501         1.865256         2.829670
 C        -0.722111         2.727917         2.742100
 C         0.245420         1.811433         2.157357
 H        -3.622283         3.412482         1.746129
 H        -2.224077         1.454910        -0.106388
 H        -0.629362         2.578754        -0.289364
 H         0.839193        -0.293364         0.868488
 H        -2.494917         0.007343         1.773232
 H        -1.243163        -0.239548         3.080912
 H        -2.820047         2.159046         3.489763
 H        -0.401575         3.607289         3.358861
 H         1.055595         2.267536         1.581177
 H         0.770469         1.251064         2.916382
