19
Iteration:  4702
 O        -2.784683         3.900720         1.418318
 C        -1.995608         2.714101         1.691361
 C        -1.557701         1.779241         0.517881
 C        -0.538513         0.925188         1.288761
 O         0.047364        -0.092500         0.436050
 C        -1.488237         0.462648         2.485798
 C        -1.919395         1.849935         2.961819
 C        -0.744444         2.753909         2.551187
 C         0.408222         1.981588         1.957180
 H        -2.515601         4.566094         2.073024
 H        -2.350250         1.155033         0.114004
 H        -1.046086         2.362312        -0.249580
 H         0.263003        -0.800540         1.034737
 H        -2.411057        -0.000891         2.001515
 H        -1.073249        -0.216046         3.231770
 H        -2.690645         1.946831         3.767564
 H        -0.726325         3.683217         3.148513
 H         0.966502         2.606005         1.199398
 H         1.080796         1.567286         2.660648
