19
Iteration:  3082charge 0 multiplicity 1
 O        -2.669104         3.865322         1.523444
 C        -1.805930         2.707117         1.652660
 C        -1.372312         1.945605         0.453356
 C        -0.552944         0.979200         1.273566
 O         0.038158         0.028796         0.507219
 C        -1.681473         0.391043         2.299046
 C        -2.049470         1.806015         2.746592
 C        -0.814983         2.632465         2.817118
 C         0.347435         1.939105         2.119925
 H        -3.252441         3.589347         0.802123
 H        -2.283677         1.379611         0.057454
 H        -0.758016         2.493711        -0.280623
 H         0.774750        -0.215285         1.026638
 H        -2.513698        -0.119716         1.786018
 H        -1.335303        -0.173875         3.213080
 H        -2.987535         2.008221         3.205606
 H        -0.576968         3.472818         3.464740
 H         0.835077         2.447955         1.241317
 H         1.026535         1.410181         2.759804
