19
Iteration:  1697
 O        -2.802066         3.868104         1.410886
 C        -1.906160         2.791497         1.725912
 C        -1.356441         2.060980         0.536018
 C        -0.544895         0.903285         1.275360
 O         0.110836        -0.114100         0.471135
 C        -1.614248         0.446422         2.247285
 C        -2.001599         1.809415         2.913269
 C        -0.829313         2.733744         2.740631
 C         0.373863         1.774203         2.191391
 H        -2.712188         4.023152         0.462168
 H        -2.084450         1.561472        -0.164697
 H        -0.654698         2.577650        -0.064808
 H        -0.283886         0.059325        -0.393149
 H        -2.389625        -0.047740         1.630197
 H        -1.208831        -0.274052         3.072170
 H        -2.590348         1.994540         3.797208
 H        -0.731208         3.532800         3.445028
 H         1.087329         2.503734         1.688297
 H         0.847176         1.168207         2.974445
