19
Iteration:  4604charge 0 multiplicity 1
 O        -2.770611         3.831566         1.369658
 C        -1.880507         2.810069         1.662495
 C        -1.650954         1.737841         0.569368
 C        -0.685153         0.895493         1.264452
 O         0.068902         0.019576         0.412454
 C        -1.377391         0.446628         2.519674
 C        -1.921325         1.870736         2.908267
 C        -0.744295         2.802147         2.632866
 C         0.301090         1.857818         1.954548
 H        -2.433362         4.634684         1.854218
 H        -2.609424         1.338096         0.185285
 H        -1.013076         2.170304        -0.273962
 H         0.458517        -0.546713         1.086100
 H        -2.261999        -0.259179         2.377848
 H        -0.644092         0.033273         3.240215
 H        -2.540542         2.068602         3.790632
 H        -0.435888         3.606901         3.329157
 H         0.980904         2.427820         1.238820
 H         0.894808         1.260886         2.612870
