19
Iteration:  1015charge 0 multiplicity 1
 O        -2.755121         3.946467         1.439408
 C        -1.875528         2.833160         1.688248
 C        -1.239326         2.000216         0.506662
 C        -0.508151         0.945384         1.284012
 O         0.086351        -0.150703         0.423857
 C        -1.648759         0.363454         2.313607
 C        -2.062508         1.758255         2.839386
 C        -0.877637         2.731522         2.804106
 C         0.353693         1.855621         2.202941
 H        -3.433442         3.687068         0.758457
 H        -2.127044         1.771775        -0.135257
 H        -0.551851         2.610425        -0.089886
 H        -0.012581         0.221739        -0.467208
 H        -2.349551        -0.211700         1.686101
 H        -1.189914        -0.253256         3.088159
 H        -2.832459         1.896738         3.625775
 H        -0.705284         3.470921         3.603228
 H         1.073967         2.367081         1.586299
 H         0.805738         1.255984         2.980516
