19
Iteration:  2345
 O        -2.638599         3.978311         1.500285
 C        -1.959074         2.797407         1.655429
 C        -1.512803         1.881691         0.533011
 C        -0.610837         0.863799         1.297436
 O         0.137078        -0.052815         0.457180
 C        -1.456684         0.364217         2.446562
 C        -2.084147         1.756619         2.890288
 C        -0.847311         2.783939         2.608273
 C         0.330195         1.913784         1.995695
 H        -3.455842         3.868834         1.044265
 H        -2.246253         1.605653        -0.130827
 H        -0.762543         2.334517        -0.183454
 H         0.535175        -0.708631         0.994442
 H        -2.208633        -0.367052         1.965822
 H        -0.757135        -0.223857         3.124786
 H        -2.784599         1.997748         3.725169
 H        -0.763422         3.699552         3.200681
 H         0.783649         2.599498         1.176344
 H         1.048005         1.454511         2.753064
