19
Iteration:  2036charge 0 multiplicity 1
 O        -2.736390         3.971186         1.470613
 C        -1.958392         2.693365         1.716202
 C        -1.362789         1.857417         0.526237
 C        -0.575437         0.921392         1.307424
 O         0.173649        -0.081451         0.461180
 C        -1.612076         0.420515         2.374025
 C        -1.969334         1.790871         2.904958
 C        -0.817243         2.760135         2.667849
 C         0.324616         1.912099         2.088722
 H        -3.535569         3.771756         0.941863
 H        -2.166710         1.349030        -0.123854
 H        -0.740540         2.507150        -0.108261
 H        -0.144380         0.029790        -0.395548
 H        -2.338253        -0.076135         1.767278
 H        -1.219796        -0.350331         3.062469
 H        -2.800947         1.962907         3.573141
 H        -0.742724         3.615404         3.359248
 H         0.931386         2.474548         1.330926
 H         1.091907         1.611764         2.779197
