19
Iteration:  4118charge 0 multiplicity 1
 O        -2.780973         3.790600         1.417685
 C        -1.888783         2.740303         1.678975
 C        -1.417168         1.842319         0.443501
 C        -0.590677         0.947976         1.300695
 O        -0.087812        -0.079750         0.462127
 C        -1.561661         0.502565         2.347272
 C        -1.802648         1.884439         2.960072
 C        -0.733456         2.836039         2.661997
 C         0.374887         1.923663         2.069275
 H        -3.683558         3.449969         1.692438
 H        -2.323061         1.315745         0.138020
 H        -0.957044         2.248595        -0.422732
 H         0.634942        -0.500100         0.875603
 H        -2.481843         0.140845         1.950157
 H        -1.224104        -0.242062         3.029397
 H        -2.542760         2.153757         3.730045
 H        -0.463849         3.589517         3.432571
 H         0.970040         2.315001         1.225770
 H         1.079242         1.432972         2.833491
