19
Iteration:  1816
 O        -2.721983         3.766095         1.329770
 C        -1.836069         2.731061         1.660992
 C        -1.346887         1.975771         0.495892
 C        -0.565886         0.929652         1.299343
 O         0.098686         0.119071         0.370139
 C        -1.659217         0.419997         2.432586
 C        -1.985500         1.837668         2.852370
 C        -0.781742         2.728113         2.702109
 C         0.269670         1.777589         2.207650
 H        -3.044535         4.253242         2.120591
 H        -2.288184         1.533502         0.028414
 H        -0.714543         2.410732        -0.259545
 H        -0.173462        -0.794946         0.388991
 H        -2.491886        -0.105549         2.109241
 H        -1.119916        -0.081358         3.259267
 H        -2.875640         1.888392         3.488027
 H        -0.454867         3.519189         3.424911
 H         0.836140         2.470548         1.583637
 H         0.847669         1.349649         2.942904
