19
Iteration:  2269charge 0 multiplicity 1
 O        -2.814329         3.880458         1.601452
 C        -1.941289         2.723051         1.584907
 C        -1.378293         1.991966         0.353810
 C        -0.571297         0.915402         1.234351
 O         0.121149        -0.065155         0.642435
 C        -1.527694         0.466784         2.390366
 C        -1.981373         1.823473         2.864399
 C        -0.773435         2.697198         2.646059
 C         0.353723         1.872222         1.992101
 H        -3.712815         3.441339         1.713196
 H        -1.991657         1.667758        -0.423644
 H        -0.622857         2.683114        -0.114290
 H        -0.440737        -0.749015         0.215050
 H        -2.374128        -0.187204         1.955085
 H        -0.915681        -0.031912         3.176305
 H        -2.741972         2.165030         3.571537
 H        -0.661769         3.698482         3.092800
 H         1.171337         2.414408         1.330262
 H         0.895892         1.375025         2.905668
