19
Iteration:  4404charge 0 multiplicity 1
 O        -2.869876         3.760890         1.439517
 C        -1.914026         2.781211         1.655779
 C        -1.552057         1.819486         0.502657
 C        -0.534091         0.924495         1.279591
 O        -0.024832        -0.120586         0.429242
 C        -1.596733         0.488774         2.455566
 C        -1.823919         1.954702         2.936576
 C        -0.607604         2.907057         2.553337
 C         0.406609         1.883208         1.999366
 H        -3.298212         3.829309         2.297755
 H        -2.362164         1.151763         0.168799
 H        -1.099351         2.280565        -0.359742
 H         0.702445        -0.522347         1.000053
 H        -2.559768        -0.026734         2.170696
 H        -1.045815        -0.087588         3.192334
 H        -2.440346         2.149932         3.825141
 H        -0.525724         3.770472         3.233787
 H         1.182108         2.177317         1.272937
 H         0.893904         1.328665         2.798797
