19
Iteration:  1592
 O        -2.761100         3.931614         1.636248
 C        -1.873479         2.822507         1.633534
 C        -1.404896         1.964776         0.443295
 C        -0.620825         0.885044         1.220492
 O         0.252187        -0.151829         0.674086
 C        -1.632005         0.390621         2.246726
 C        -2.125300         1.824183         2.739517
 C        -0.787892         2.693339         2.740514
 C         0.331195         1.906251         2.007012
 H        -2.301611         4.762105         1.449492
 H        -2.227774         1.512788        -0.094550
 H        -0.636900         2.509878        -0.214343
 H        -0.337788        -0.637310         0.174095
 H        -2.461734        -0.188446         1.816559
 H        -1.122970        -0.238904         2.884246
 H        -2.863841         2.040648         3.506082
 H        -0.834311         3.390558         3.583301
 H         0.730057         2.470904         1.207136
 H         1.235423         1.458798         2.471123
