19
Iteration:  3276
 O        -2.720205         3.868796         1.383462
 C        -1.890342         2.765416         1.686391
 C        -1.449133         1.941939         0.379352
 C        -0.628844         0.943525         1.195243
 O         0.063946        -0.084784         0.487406
 C        -1.505395         0.479295         2.249188
 C        -1.992349         1.824863         2.980281
 C        -0.805723         2.741473         2.777679
 C         0.341872         1.837730         2.223951
 H        -3.583948         3.787308         1.783367
 H        -2.171180         1.402445        -0.263788
 H        -0.948082         2.649134        -0.170640
 H         0.971120         0.227359         0.486423
 H        -2.414057        -0.084627         1.850428
 H        -1.060118        -0.325580         2.878633
 H        -2.658242         1.749196         3.868530
 H        -0.814438         3.704663         3.302489
 H         1.182396         2.333230         1.760860
 H         0.829887         1.004544         2.769387
