19
Iteration:  3384charge 0 multiplicity 1
 O        -2.762563         3.823106         1.572660
 C        -1.824059         2.785193         1.653281
 C        -1.390499         1.897199         0.448159
 C        -0.572844         0.828967         1.335358
 O         0.136523        -0.086096         0.456971
 C        -1.649449         0.450215         2.337398
 C        -2.083504         1.830294         2.786228
 C        -0.782953         2.736217         2.771796
 C         0.307181         1.957183         2.100563
 H        -2.854289         4.159915         0.648383
 H        -2.277641         1.699049        -0.202326
 H        -0.664176         2.456974        -0.246520
 H         0.790846         0.448957         0.103263
 H        -2.466215        -0.153978         1.791382
 H        -1.308369        -0.219091         3.223045
 H        -2.736096         1.887951         3.678869
 H        -0.626973         3.620926         3.446764
 H         0.735526         2.461793         1.295123
 H         1.050048         1.414824         2.714263
