19
Iteration:  2145
 O        -2.814467         3.882412         1.596422
 C        -1.900493         2.861776         1.659982
 C        -1.465316         2.001124         0.355182
 C        -0.567925         0.967371         1.211601
 O         0.222930        -0.178671         0.651801
 C        -1.574204         0.415290         2.271037
 C        -2.014281         1.834267         2.772452
 C        -0.725049         2.758467         2.721785
 C         0.390248         1.873056         2.018901
 H        -3.741710         3.490924         1.569750
 H        -2.319955         1.535640         0.010768
 H        -1.122891         2.666347        -0.384608
 H        -0.477620        -0.863663         0.625678
 H        -2.380389        -0.198660         1.872197
 H        -1.102677        -0.211284         3.101031
 H        -2.906702         1.899680         3.469865
 H        -0.692325         3.494189         3.541344
 H         1.170686         2.452743         1.420794
 H         1.010978         1.345473         2.782356
