19
Iteration:  1119charge 0 multiplicity 1
 O        -2.783698         3.850837         1.583521
 C        -1.858132         2.804447         1.663315
 C        -1.329203         2.043291         0.329001
 C        -0.552955         0.966946         1.188687
 O        -0.002182        -0.217104         0.544540
 C        -1.552359         0.444663         2.232565
 C        -1.953410         1.839371         2.818930
 C        -0.828721         2.779178         2.808617
 C         0.309794         1.843721         2.178385
 H        -3.563230         3.433598         1.121273
 H        -2.093666         1.667516        -0.259952
 H        -0.617270         2.640488        -0.263457
 H         1.009139        -0.215332         0.719165
 H        -2.484243         0.074724         1.729439
 H        -1.251253        -0.329601         2.981949
 H        -2.859049         1.909064         3.428599
 H        -0.723359         3.626837         3.514593
 H         1.015696         2.514393         1.618916
 H         0.992804         1.278630         2.840796
