19
Iteration:  4953charge 0 multiplicity 1
 O        -2.855951         3.735637         1.608328
 C        -1.799658         2.763398         1.525287
 C        -1.384692         1.849994         0.462835
 C        -0.677238         0.922352         1.346512
 O        -0.015705        -0.002438         0.405856
 C        -1.578432         0.464033         2.455887
 C        -1.853298         1.911776         2.851343
 C        -0.714705         2.890946         2.638709
 C         0.368669         1.828868         2.096415
 H        -3.331120         3.878387         0.756945
 H        -2.169460         1.271273         0.019062
 H        -0.610314         2.089219        -0.259285
 H         0.515915        -0.591278         0.897712
 H        -2.563094         0.031338         2.047409
 H        -1.141615        -0.132170         3.190893
 H        -2.667624         2.205331         3.498538
 H        -0.637860         3.894357         3.126385
 H         1.035645         2.294602         1.310724
 H         0.859628         1.155825         2.773926
