19
Iteration:  3399charge 0 multiplicity 1
 O        -2.772013         3.769913         1.525549
 C        -1.884089         2.712262         1.643527
 C        -1.377261         1.934362         0.495840
 C        -0.640166         0.917730         1.247452
 O         0.100739         0.020601         0.432822
 C        -1.661339         0.382472         2.382329
 C        -2.005369         1.848732         2.850323
 C        -0.766386         2.776618         2.660693
 C         0.315055         1.831600         2.163671
 H        -2.349054         4.304332         0.842035
 H        -2.125626         1.302860        -0.005139
 H        -0.681736         2.459636        -0.061077
 H         1.000975         0.460089         0.266324
 H        -2.590390        -0.160687         2.062012
 H        -1.065449        -0.082994         3.136075
 H        -2.865414         2.157939         3.409550
 H        -0.565238         3.686959         3.203582
 H         1.054392         2.396405         1.600538
 H         0.827383         1.374546         2.997773
