19
Iteration:   211charge 0 multiplicity 1
 O        -2.590053         3.912006         1.612561
 C        -1.934683         2.749780         1.638829
 C        -1.321395         2.035379         0.377642
 C        -0.642140         0.969716         1.215484
 O         0.195939         0.058380         0.580280
 C        -1.658373         0.346962         2.197321
 C        -2.058407         1.706928         2.766273
 C        -0.840434         2.680627         2.746053
 C         0.270677         1.881408         2.155886
 H        -3.553696         3.676401         1.488829
 H        -2.121932         1.647339        -0.175863
 H        -0.732206         2.625952        -0.324479
 H         0.013092        -0.879341         0.811817
 H        -2.526139        -0.151226         1.870442
 H        -1.087891        -0.340390         2.849130
 H        -2.812927         1.828676         3.519257
 H        -0.768939         3.468673         3.473908
 H         0.946144         2.259454         1.457128
 H         0.853407         1.301342         2.886784
