19
Iteration:  3642charge 0 multiplicity 1
 O        -2.754226         3.889738         1.446086
 C        -1.952369         2.772975         1.709933
 C        -1.484636         1.995763         0.521400
 C        -0.511948         1.001565         1.279612
 O         0.046860        -0.165467         0.576801
 C        -1.524936         0.425495         2.338227
 C        -2.042385         1.784497         2.855631
 C        -0.770996         2.658587         2.697581
 C         0.420219         1.905993         2.078876
 H        -2.716317         3.965429         0.453187
 H        -2.269905         1.527438        -0.055948
 H        -1.106312         2.627166        -0.250262
 H         0.145014         0.000213        -0.353652
 H        -2.222790        -0.295854         1.811290
 H        -0.933705        -0.226217         3.040108
 H        -2.747121         1.984332         3.622852
 H        -0.669464         3.544311         3.301407
 H         0.955301         2.622799         1.542488
 H         0.960795         1.519613         2.870162
