19
Iteration:  4676
 O        -2.845703         3.737111         1.491217
 C        -1.842326         2.762722         1.622262
 C        -1.484407         1.971423         0.373162
 C        -0.684260         0.959404         1.210003
 O        -0.094819        -0.181644         0.581320
 C        -1.333360         0.449366         2.488083
 C        -1.936590         1.857675         2.859211
 C        -0.701155         2.758964         2.617484
 C         0.366820         2.001615         1.965137
 H        -2.759340         4.400222         2.189296
 H        -2.480056         1.737372        -0.019232
 H        -0.857580         2.483295        -0.352841
 H         0.425630        -0.586667         1.217956
 H        -1.990426        -0.373270         2.214416
 H        -0.599545         0.126365         3.220557
 H        -2.752269         2.070933         3.507166
 H        -0.863512         3.626845         3.229537
 H         1.068336         2.608839         1.401957
 H         0.905080         1.277427         2.706711
