19
Iteration:   173
 O        -2.971679         3.880648         1.496672
 C        -1.875262         2.833046         1.655359
 C        -1.215826         2.091242         0.469632
 C        -0.546261         0.957986         1.314144
 O         0.091064        -0.077877         0.478587
 C        -1.643557         0.453743         2.173976
 C        -1.963471         1.758576         2.762454
 C        -0.730591         2.748324         2.779618
 C         0.429092         1.744769         2.264924
 H        -3.823418         3.387471         1.363633
 H        -1.860926         1.355069        -0.157109
 H        -0.480836         2.636425        -0.146754
 H        -0.618949        -0.215419        -0.247136
 H        -2.543060        -0.043134         1.631514
 H        -1.234386        -0.240695         2.911398
 H        -2.608975         1.788752         3.661841
 H        -0.620965         3.411067         3.661776
 H         1.289510         2.233986         1.658936
 H         0.820383         1.199527         3.128247
