19
Iteration:  3501charge 0 multiplicity 1
 O        -2.785524         3.942735         1.529713
 C        -1.857476         2.805679         1.664860
 C        -1.515636         1.885038         0.551819
 C        -0.572129         0.875334         1.247652
 O         0.164280        -0.054571         0.407511
 C        -1.534757         0.424005         2.271048
 C        -1.950640         1.799185         2.792101
 C        -0.802089         2.781909         2.632304
 C         0.298685         1.888188         2.246619
 H        -3.357027         3.619092         0.767491
 H        -2.405434         1.480071         0.135499
 H        -1.157426         2.402568        -0.390085
 H         0.295471        -0.917302         0.840232
 H        -2.238775        -0.305564         1.900974
 H        -0.952641        -0.117210         3.024226
 H        -2.519140         2.055816         3.709064
 H        -0.572558         3.612823         3.342781
 H         1.173226         2.520855         1.757888
 H         0.561036         1.335823         3.145334
