19
Iteration:  3928charge 0 multiplicity 1
 O        -2.764166         3.845090         1.395281
 C        -2.056318         2.719468         1.673106
 C        -1.446180         2.009962         0.446433
 C        -0.613283         0.956857         1.233151
 O         0.110871        -0.082344         0.553918
 C        -1.494901         0.440206         2.364947
 C        -1.948467         1.796667         2.901356
 C        -0.759942         2.667048         2.671376
 C         0.342106         1.939580         2.039322
 H        -2.717591         4.432489         2.144793
 H        -2.045543         1.503260        -0.297464
 H        -0.768764         2.723286        -0.059656
 H         0.090005        -0.970082         1.082102
 H        -2.367760        -0.038254         1.950497
 H        -1.060067        -0.041341         3.188519
 H        -2.573418         1.941057         3.793657
 H        -0.420759         3.519849         3.227518
 H         0.798733         2.640648         1.369103
 H         0.912343         1.127388         2.558364
