19
Iteration:   696
 O        -2.727649         3.973365         1.537951
 C        -1.882348         2.809783         1.699750
 C        -1.304708         2.022226         0.450852
 C        -0.558243         0.920841         1.289684
 O         0.195161        -0.064816         0.601623
 C        -1.732208         0.369612         2.048550
 C        -2.236246         1.686812         2.668823
 C        -0.831001         2.617650         2.787886
 C         0.368666         1.857249         2.220960
 H        -2.582705         4.460892         2.417386
 H        -2.025004         1.581056        -0.298838
 H        -0.561568         2.660255        -0.006353
 H         0.812442         0.431764        -0.046723
 H        -2.250332        -0.324251         1.301626
 H        -1.437398        -0.363997         2.789931
 H        -2.915975         1.774527         3.492022
 H        -0.776500         3.449404         3.502059
 H         1.157649         2.414316         1.619620
 H         0.881496         1.366715         3.109333
