19
Iteration:  4314
 O        -2.800360         3.945924         1.615826
 C        -1.829294         2.802059         1.642201
 C        -1.743132         1.713960         0.458102
 C        -0.664037         0.905005         1.211183
 O         0.190295        -0.053798         0.554607
 C        -1.533464         0.504540         2.484963
 C        -1.915625         1.928094         2.915598
 C        -0.627954         2.675403         2.535441
 C         0.322579         1.877570         1.874241
 H        -3.336075         3.990817         0.777161
 H        -2.617628         1.145367         0.168346
 H        -1.191191         2.218192        -0.297710
 H         0.732096        -0.396489         1.299310
 H        -2.411799        -0.058910         2.222916
 H        -0.989737         0.121128         3.388254
 H        -2.560862         2.077045         3.808692
 H        -0.198164         3.544290         3.029711
 H         0.845601         2.297290         1.066399
 H         1.054891         1.313431         2.460719
