19
Iteration:  3596
 O        -2.672269         3.863946         1.572460
 C        -1.880778         2.742653         1.644813
 C        -1.539498         1.872394         0.399936
 C        -0.553954         0.929919         1.247662
 O         0.108308        -0.061612         0.552494
 C        -1.581883         0.492315         2.392495
 C        -2.115663         1.832778         2.787481
 C        -0.682662         2.758127         2.634531
 C         0.361997         1.872174         2.078682
 H        -3.619429         3.638703         1.449950
 H        -2.369690         1.375654        -0.136073
 H        -1.064571         2.397957        -0.391908
 H         0.981160         0.197952         0.479733
 H        -2.313663        -0.194196         1.848242
 H        -1.301107        -0.110533         3.257761
 H        -2.877825         1.998447         3.574410
 H        -0.686932         3.639221         3.312614
 H         1.118506         2.427088         1.632492
 H         0.746915         1.190264         2.857367
