19
Iteration:  3291
 O        -2.732117         3.840187         1.391960
 C        -1.867002         2.762095         1.672715
 C        -1.440701         1.956232         0.526763
 C        -0.537875         0.965938         1.282219
 O         0.084285        -0.004785         0.439790
 C        -1.674798         0.403319         2.343598
 C        -1.995754         1.811835         2.798300
 C        -0.731586         2.719973         2.730780
 C         0.321553         1.818558         2.176378
 H        -3.555329         3.628084         1.854404
 H        -2.369414         1.504154         0.098545
 H        -0.935728         2.415548        -0.388811
 H         1.073882         0.235569         0.260801
 H        -2.462476        -0.171350         1.912379
 H        -1.251959        -0.235590         3.107621
 H        -2.759476         2.076592         3.528934
 H        -0.394325         3.492792         3.438045
 H         1.051641         2.474159         1.550002
 H         0.758055         1.359407         3.063951
