19
Iteration:  3898charge 0 multiplicity 1
 O        -2.739505         3.803211         1.443711
 C        -1.864349         2.776612         1.639825
 C        -1.520652         1.844459         0.568055
 C        -0.587075         0.862483         1.326988
 O         0.108736         0.062230         0.359116
 C        -1.604934         0.374919         2.391424
 C        -2.013644         1.809865         2.803406
 C        -0.732282         2.831881         2.640527
 C         0.319495         1.942320         2.188721
 H        -2.342157         4.691905         1.685629
 H        -2.379483         1.219605         0.214251
 H        -1.221467         2.085742        -0.472126
 H         0.511358        -0.724310         0.757019
 H        -2.411751        -0.183909         1.829426
 H        -1.194080        -0.207682         3.382001
 H        -2.809418         1.966522         3.592120
 H        -0.447921         3.704567         3.208530
 H         1.098285         2.423736         1.431506
 H         1.001545         1.271684         2.920662
