19
Iteration:  2111
 O        -2.699999         3.895986         1.632097
 C        -1.965662         2.700856         1.634820
 C        -1.430698         1.947300         0.401721
 C        -0.585040         0.904375         1.309917
 O         0.257415        -0.026522         0.631276
 C        -1.691608         0.353506         2.294969
 C        -1.984026         1.843733         2.847003
 C        -0.790243         2.827785         2.583004
 C         0.376811         1.893893         2.001851
 H        -3.668920         3.683153         1.585558
 H        -2.081978         1.457309        -0.250024
 H        -0.817132         2.596899        -0.124148
 H        -0.398365        -0.670936         0.140347
 H        -2.601284        -0.019479         1.823634
 H        -1.344055        -0.380543         3.058270
 H        -2.829638         1.887098         3.570032
 H        -0.603609         3.702476         3.233123
 H         1.077327         2.266869         1.211541
 H         0.884081         1.316657         2.777430
