19
Iteration:   726charge 0 multiplicity 1
 O        -2.712752         3.899381         1.575808
 C        -1.841352         2.766642         1.640148
 C        -1.320223         2.191068         0.277937
 C        -0.625035         0.962607         1.223148
 O         0.245697        -0.137883         0.685890
 C        -1.689130         0.449599         2.062557
 C        -2.108487         1.736648         2.723141
 C        -0.881959         2.593442         2.841343
 C         0.277329         1.810092         2.253871
 H        -3.029740         3.843752         2.475415
 H        -1.936102         1.763963        -0.465792
 H        -0.567322         2.824720        -0.115455
 H         0.423929         0.069079        -0.185358
 H        -2.381043        -0.137533         1.451442
 H        -1.221342        -0.264814         2.759095
 H        -2.804633         1.863414         3.511176
 H        -0.667035         3.523163         3.342819
 H         0.993051         2.402553         1.779429
 H         0.605884         1.204462         3.108977
