19
Iteration:  1177
 O        -2.574776         3.938567         1.420945
 C        -1.889363         2.801786         1.679559
 C        -1.477678         1.866442         0.409291
 C        -0.583037         0.952698         1.159929
 O         0.162486        -0.009634         0.489639
 C        -1.600223         0.396769         2.341393
 C        -2.028167         1.812003         2.941990
 C        -0.860545         2.627470         2.762278
 C         0.256159         1.851584         2.180012
 H        -3.464076         3.683476         1.645646
 H        -2.402015         1.390109        -0.047894
 H        -1.011366         2.375080        -0.474302
 H         0.463351         0.339906        -0.347316
 H        -2.364741        -0.372314         2.019995
 H        -1.051316         0.000282         3.177692
 H        -2.732622         2.091697         3.759685
 H        -0.644302         3.465441         3.383455
 H         0.848788         2.672495         1.766061
 H         0.833075         1.188048         2.962387
