19
Iteration:  1059charge 0 multiplicity 1
 O        -2.523654         3.986360         1.455117
 C        -1.913171         2.738902         1.715975
 C        -1.443669         1.943412         0.518254
 C        -0.557111         0.912779         1.216514
 O         0.185196        -0.080178         0.431756
 C        -1.617917         0.375489         2.285652
 C        -2.122031         1.735930         2.851475
 C        -0.890314         2.741192         2.692364
 C         0.269901         1.879915         2.199257
 H        -3.503177         3.876976         1.602667
 H        -2.263906         1.308730         0.001758
 H        -0.926873         2.541389        -0.255571
 H         0.950923         0.405223         0.074451
 H        -2.531580        -0.053867         1.832146
 H        -1.264645        -0.314604         3.065813
 H        -2.887570         1.778725         3.680928
 H        -0.824884         3.551139         3.426533
 H         0.956482         2.553846         1.699206
 H         0.687888         1.322970         3.033781
