19
Iteration:  3099charge 0 multiplicity 1
 O        -2.707833         3.875062         1.551921
 C        -1.894939         2.771294         1.700054
 C        -1.391706         2.031498         0.451149
 C        -0.612952         0.899547         1.245898
 O         0.217747        -0.096965         0.517095
 C        -1.676584         0.460897         2.227004
 C        -2.079956         1.814896         2.847536
 C        -0.798688         2.750833         2.686077
 C         0.325454         1.843632         2.090464
 H        -3.444998         3.588282         1.005538
 H        -2.212391         1.585448        -0.143239
 H        -0.708790         2.612912        -0.165321
 H         0.657977        -0.633797         1.206196
 H        -2.460092         0.007521         1.582168
 H        -1.243398        -0.300372         2.882503
 H        -2.677827         1.929317         3.774345
 H        -0.601190         3.529252         3.447904
 H         0.903618         2.556557         1.518135
 H         0.859465         1.209376         2.918564
