19
Iteration:  3851charge 0 multiplicity 1
 O        -2.732749         3.794770         1.529734
 C        -1.949337         2.700144         1.713328
 C        -1.436771         2.048124         0.473276
 C        -0.613227         0.927475         1.248531
 O         0.034691        -0.125318         0.565853
 C        -1.523426         0.395555         2.313124
 C        -1.969172         1.842979         2.881615
 C        -0.802729         2.735372         2.633388
 C         0.328072         1.911261         2.014439
 H        -2.671631         4.095942         0.622079
 H        -2.014999         1.883926        -0.405912
 H        -0.764029         2.821022         0.072713
 H         0.882151        -0.294606         0.877891
 H        -2.455110        -0.069046         2.013524
 H        -1.035919        -0.136480         3.126829
 H        -2.742566         2.136859         3.527486
 H        -0.734257         3.695638         3.159664
 H         1.019014         2.458092         1.362794
 H         0.951225         1.356974         2.896207
