19
Iteration:  2849
 O        -2.731825         3.827440         1.584120
 C        -1.902310         2.800519         1.624272
 C        -1.312716         1.894596         0.472338
 C        -0.515625         0.891036         1.325051
 O        -0.016024        -0.102561         0.493918
 C        -1.617162         0.462825         2.231388
 C        -2.100245         1.801198         2.695751
 C        -0.718678         2.819963         2.733962
 C         0.374054         1.947825         2.121194
 H        -3.659238         3.624526         1.592204
 H        -2.138366         1.492124        -0.104563
 H        -0.604939         2.410641        -0.037774
 H         0.748304        -0.586536         0.974294
 H        -2.292594        -0.030949         1.498587
 H        -1.474512        -0.204631         3.189076
 H        -2.882990         1.906323         3.444898
 H        -0.501974         3.535586         3.564667
 H         0.961363         2.547209         1.284131
 H         0.996879         1.694394         3.005080
