19
Iteration:  2186
 O        -2.642544         3.875139         1.423227
 C        -1.948292         2.586080         1.659714
 C        -1.399516         1.942653         0.416632
 C        -0.577659         0.930757         1.243831
 O         0.089679         0.058107         0.416687
 C        -1.563844         0.397208         2.531910
 C        -1.966998         1.762338         2.936462
 C        -0.827716         2.796464         2.700052
 C         0.326587         1.929145         2.141322
 H        -3.550646         3.750377         1.135401
 H        -2.183745         1.342104        -0.226400
 H        -0.760753         2.498236        -0.228291
 H        -0.462716        -0.466019        -0.122273
 H        -2.439086        -0.093390         2.109718
 H        -1.030495        -0.300486         3.202639
 H        -2.768100         2.083598         3.661106
 H        -0.654352         3.743639         3.255168
 H         1.016518         2.459318         1.506678
 H         0.853490         1.320710         2.820783
