19
Iteration:  3237charge 0 multiplicity 1
 O        -2.723849         3.953262         1.625745
 C        -1.862523         2.786745         1.613188
 C        -1.374929         1.924958         0.448225
 C        -0.561429         0.903340         1.323429
 O         0.067944        -0.148448         0.594418
 C        -1.590328         0.382971         2.305555
 C        -2.143128         1.761769         2.702292
 C        -0.828580         2.747493         2.723450
 C         0.417364         1.933092         2.031163
 H        -3.529902         3.445057         1.366020
 H        -2.285799         1.584227        -0.097432
 H        -0.542425         2.395418        -0.224382
 H         0.720595         0.403152         0.010318
 H        -2.286353        -0.190416         1.742777
 H        -1.046934        -0.156902         3.060519
 H        -2.828584         1.946423         3.554821
 H        -0.836397         3.576494         3.455194
 H         0.945233         2.555252         1.217983
 H         1.180834         1.677378         2.743838
