19
Iteration:  1632charge 0 multiplicity 1
 O        -2.749524         3.908486         1.598794
 C        -2.008463         2.790019         1.619178
 C        -1.446519         1.939878         0.395413
 C        -0.528714         0.974665         1.225305
 O         0.248007        -0.125838         0.578129
 C        -1.661855         0.428173         2.211608
 C        -2.007213         1.853801         2.820182
 C        -0.830988         2.780174         2.664517
 C         0.360203         1.787223         2.178857
 H        -2.089654         4.609893         1.815298
 H        -2.233193         1.305818        -0.119940
 H        -1.058832         2.632668        -0.321577
 H        -0.275569        -1.022465         0.441374
 H        -2.458731        -0.083945         1.610862
 H        -1.201666        -0.216180         3.063272
 H        -2.775473         2.004386         3.572799
 H        -0.671143         3.569349         3.345624
 H         1.141003         2.446519         1.662573
 H         0.807704         0.988627         2.829969
