19
Iteration:  4180charge 0 multiplicity 1
 O        -2.761637         3.877026         1.573218
 C        -1.922508         2.754614         1.639702
 C        -1.629651         1.826130         0.411360
 C        -0.593822         0.887383         1.257345
 O         0.164906        -0.068132         0.592730
 C        -1.498850         0.408661         2.403861
 C        -1.922601         1.872214         2.904554
 C        -0.681883         2.766085         2.615663
 C         0.291307         1.957528         1.954213
 H        -2.339614         4.521372         0.939233
 H        -2.588308         1.311832         0.225942
 H        -1.180571         2.234038        -0.553967
 H        -0.455129        -0.756960         0.486583
 H        -2.401682        -0.157296         2.070575
 H        -0.903132        -0.025689         3.301269
 H        -2.685354         2.098729         3.590497
 H        -0.507615         3.640068         3.235032
 H         0.885337         2.495426         1.230443
 H         0.899264         1.425505         2.695172
