19
Iteration:   336charge 0 multiplicity 1
 O        -2.710921         3.846144         1.619237
 C        -1.859858         2.756879         1.594084
 C        -1.274345         2.116690         0.416790
 C        -0.567763         0.996303         1.235824
 O         0.065009        -0.023375         0.735295
 C        -1.704801         0.409018         2.101231
 C        -2.102353         1.729585         2.569940
 C        -0.751547         2.603252         2.783176
 C         0.328401         1.860057         2.186216
 H        -3.540005         3.505212         2.017431
 H        -2.118624         1.694656        -0.163775
 H        -0.474664         2.750087         0.026764
 H         0.580827         0.198973        -0.013680
 H        -2.433835        -0.050192         1.338701
 H        -1.386868        -0.277637         2.874563
 H        -2.779262         1.821701         3.388447
 H        -0.576422         3.219203         3.641191
 H         1.186789         2.464044         1.681294
 H         0.739199         1.250662         3.004534
