19
Iteration:  2469charge 0 multiplicity 1
 O        -2.655957         3.975684         1.519400
 C        -2.021769         2.704109         1.668656
 C        -1.436656         1.899427         0.450818
 C        -0.528359         0.922073         1.264192
 O         0.113863        -0.096577         0.452978
 C        -1.574701         0.452536         2.340201
 C        -1.995750         1.801581         2.908135
 C        -0.837212         2.698852         2.640432
 C         0.333807         1.961996         2.104818
 H        -3.505024         3.813211         1.122989
 H        -2.223368         1.322150         0.001659
 H        -0.886068         2.399474        -0.392995
 H         0.449444        -0.831109         1.010356
 H        -2.499924        -0.203920         2.069912
 H        -1.051897        -0.186322         3.096356
 H        -2.671418         1.934179         3.772710
 H        -0.614494         3.690626         3.076745
 H         0.943770         2.563624         1.371975
 H         1.137878         1.552445         2.893057
