19
Iteration:  2308charge 0 multiplicity 1
 O        -2.749303         3.829138         1.409011
 C        -1.860318         2.716248         1.653393
 C        -1.511471         1.845775         0.496797
 C        -0.570528         0.954149         1.289430
 O         0.106175         0.008280         0.414718
 C        -1.533000         0.473458         2.319138
 C        -1.989594         1.919304         2.971201
 C        -0.774534         2.747318         2.709532
 C         0.411364         1.909010         2.140699
 H        -3.606723         3.415695         1.312016
 H        -2.472199         1.236765         0.233271
 H        -0.985457         2.417560        -0.287948
 H        -0.261481        -0.911883         0.634392
 H        -2.384786         0.064446         1.856896
 H        -1.170246        -0.357675         2.949972
 H        -2.764362         1.995086         3.696876
 H        -0.573141         3.680882         3.231983
 H         1.141020         2.407435         1.573559
 H         0.988837         1.281993         2.763059
