19
Iteration:  2426charge 0 multiplicity 1
 O        -2.860989         3.832582         1.408810
 C        -1.852235         2.825240         1.664441
 C        -1.404700         1.956293         0.420464
 C        -0.563887         0.891002         1.281458
 O         0.114295        -0.080593         0.504718
 C        -1.555305         0.516826         2.405973
 C        -2.034106         1.877057         2.852674
 C        -0.711707         2.707212         2.729059
 C         0.379643         1.832566         2.105154
 H        -3.741254         3.523311         1.609225
 H        -2.207700         1.410411        -0.086458
 H        -0.862234         2.620230        -0.177999
 H        -0.482747        -0.360802        -0.144866
 H        -2.307420        -0.252785         2.050859
 H        -1.036908        -0.043732         3.201783
 H        -2.559333         1.901298         3.795070
 H        -0.453977         3.602949         3.325767
 H         1.126607         2.397345         1.508047
 H         1.058156         1.300355         2.898704
