19
Iteration:  4028charge 0 multiplicity 1
 O        -2.696143         3.893786         1.461854
 C        -1.926311         2.756498         1.638409
 C        -1.537874         1.826977         0.513558
 C        -0.536004         0.965351         1.244823
 O         0.016860        -0.036360         0.478586
 C        -1.481927         0.443139         2.437098
 C        -2.023972         1.786491         2.867330
 C        -0.783217         2.678118         2.753057
 C         0.345254         1.960062         2.000482
 H        -2.828138         4.020959         0.501510
 H        -2.487438         1.410744         0.234846
 H        -0.948844         2.271842        -0.307176
 H         0.463214        -0.545874         1.108283
 H        -2.124589        -0.246924         1.912980
 H        -1.013898        -0.177794         3.183652
 H        -2.768110         2.096835         3.598649
 H        -0.566940         3.596444         3.310139
 H         0.922825         2.708620         1.455194
 H         1.219184         1.548897         2.608087
