19
Iteration:  1570charge 0 multiplicity 1
 O        -2.743018         3.855587         1.504320
 C        -1.924235         2.743200         1.622242
 C        -1.411317         1.960967         0.469635
 C        -0.492415         0.952235         1.255915
 O         0.118241        -0.073486         0.500482
 C        -1.634202         0.439180         2.325451
 C        -2.010769         1.823492         2.848732
 C        -0.773332         2.707932         2.702671
 C         0.334512         1.874047         2.193650
 H        -2.434064         4.494696         0.818307
 H        -2.231105         1.347727         0.096082
 H        -0.866138         2.575361        -0.329206
 H        -0.613258        -0.244100        -0.230749
 H        -2.402075        -0.062148         1.718595
 H        -1.444903        -0.192153         3.126566
 H        -2.772504         1.793328         3.618476
 H        -0.514550         3.482134         3.408573
 H         1.132738         2.436436         1.786072
 H         0.763128         1.242188         3.006283
