19
Iteration:  1463charge 0 multiplicity 1
 O        -2.736620         3.998486         1.715752
 C        -1.956716         2.754871         1.592826
 C        -1.486078         1.930242         0.390767
 C        -0.527894         0.929842         1.150541
 O         0.321536        -0.142666         0.643186
 C        -1.595024         0.447278         2.322496
 C        -2.136112         1.831640         2.702826
 C        -0.820171         2.677901         2.697450
 C         0.267973         1.815347         2.034571
 H        -2.007367         4.644232         1.864246
 H        -2.126063         1.549893        -0.325786
 H        -0.937288         2.579748        -0.290274
 H        -0.315484        -0.988521         0.619606
 H        -2.412248        -0.099656         1.805545
 H        -1.083523        -0.082381         3.181987
 H        -2.883818         2.066730         3.498756
 H        -0.622921         3.613697         3.174615
 H         0.854554         2.463624         1.394376
 H         0.901327         1.313576         2.752192
