19
Iteration:   584
 O        -2.765011         3.875012         1.661318
 C        -1.898369         2.746035         1.684034
 C        -1.257100         2.164034         0.365173
 C        -0.531299         1.044099         1.123858
 O         0.198584        -0.138575         0.694033
 C        -1.698129         0.395093         2.095371
 C        -2.157378         1.721078         2.686184
 C        -0.879335         2.653747         2.760550
 C         0.255933         1.773055         2.235398
 H        -2.175584         4.635904         1.782331
 H        -1.972902         1.820703        -0.328112
 H        -0.510698         2.721533        -0.164092
 H         0.822548         0.150755         0.069931
 H        -2.307910        -0.073531         1.314265
 H        -1.227495        -0.459418         2.589888
 H        -2.852920         1.779538         3.551063
 H        -0.790470         3.535783         3.418624
 H         0.991190         2.485146         1.831145
 H         0.741029         1.048493         2.963053
