19
Iteration:  2616charge 0 multiplicity 1
 O        -2.653768         4.027022         1.609712
 C        -1.954782         2.750754         1.637165
 C        -1.413282         1.812355         0.438772
 C        -0.585442         0.924134         1.302385
 O         0.178394        -0.023463         0.544644
 C        -1.606316         0.391385         2.190796
 C        -1.991336         1.803843         2.863787
 C        -0.850214         2.746384         2.581910
 C         0.332661         1.897473         2.110401
 H        -3.574074         3.893073         1.224944
 H        -2.184735         1.118991         0.010794
 H        -0.893521         2.356702        -0.290092
 H        -0.175296        -0.882552         0.955484
 H        -2.565763        -0.049187         1.797825
 H        -1.107657        -0.374286         2.920602
 H        -2.542060         1.944987         3.798778
 H        -0.860968         3.582408         3.321618
 H         1.074454         2.342589         1.354227
 H         0.945626         1.507513         3.043221
