19
Iteration:  4595charge 0 multiplicity 1
 O        -2.749993         3.885172         1.401108
 C        -1.936130         2.783017         1.659399
 C        -1.632760         1.801480         0.591359
 C        -0.597809         0.880927         1.295587
 O         0.054921        -0.055095         0.416057
 C        -1.384672         0.424785         2.547731
 C        -2.021646         1.877306         2.911877
 C        -0.752283         2.757376         2.598585
 C         0.354763         1.922391         1.873410
 H        -2.395944         4.710379         1.841563
 H        -2.515019         1.285880         0.086117
 H        -1.144858         2.402132        -0.265632
 H         0.549452        -0.744210         0.887022
 H        -2.119922        -0.394163         2.453511
 H        -0.736797         0.235441         3.436683
 H        -2.774201         1.698291         3.707814
 H        -0.501930         3.592127         3.287348
 H         1.040322         2.492851         1.177193
 H         1.032410         1.473937         2.674977
