19
Iteration:  2635charge 0 multiplicity 1
 O        -2.583622         3.914187         1.639975
 C        -1.927855         2.736951         1.613341
 C        -1.488658         1.958119         0.373519
 C        -0.551938         0.891088         1.267043
 O         0.152194        -0.035241         0.536187
 C        -1.565485         0.439658         2.379263
 C        -2.104118         1.753854         2.776262
 C        -0.821529         2.706531         2.681254
 C         0.290246         1.946015         2.047781
 H        -3.267112         3.871888         0.952653
 H        -2.172504         1.378868        -0.226557
 H        -0.834028         2.571017        -0.203119
 H         0.018807        -0.948112         1.008402
 H        -2.343805        -0.300731         2.049805
 H        -1.190919        -0.062635         3.249859
 H        -2.920999         1.988686         3.404970
 H        -0.559422         3.668124         3.150127
 H         0.912146         2.606397         1.535954
 H         0.975326         1.382995         2.711346
