19
Iteration:  1371charge 0 multiplicity 1
 O        -2.802546         3.836506         1.619183
 C        -1.776564         2.730771         1.605584
 C        -1.293904         1.975598         0.398291
 C        -0.564686         0.913330         1.280767
 O         0.061366        -0.046941         0.617561
 C        -1.626333         0.468609         2.277770
 C        -2.045127         1.777185         2.797496
 C        -0.787230         2.696807         2.686837
 C         0.312500         1.842860         2.159536
 H        -2.827462         4.546126         0.980332
 H        -2.100636         1.566883        -0.258187
 H        -0.676406         2.639504        -0.310640
 H         0.041309         0.172951        -0.269998
 H        -2.567224         0.099542         1.813707
 H        -1.251529        -0.209587         3.024920
 H        -2.947091         1.823872         3.358331
 H        -0.638799         3.547698         3.352577
 H         0.829815         2.356365         1.377619
 H         1.048993         1.354306         2.795041
