19
Iteration:  3944
 O        -2.846444         3.867426         1.425683
 C        -1.875630         2.788076         1.712490
 C        -1.421119         2.051503         0.466295
 C        -0.521095         0.920117         1.227088
 O         0.076024        -0.186132         0.578927
 C        -1.529929         0.432656         2.345391
 C        -2.031322         1.749156         2.824381
 C        -0.778268         2.778060         2.691137
 C         0.385424         1.919245         1.973448
 H        -3.093479         4.327112         2.254684
 H        -2.313501         1.746789        -0.148447
 H        -0.854302         2.687968        -0.219032
 H        -0.165869        -0.958984         1.230717
 H        -2.223602        -0.357353         1.932224
 H        -0.734862        -0.074892         3.049635
 H        -2.749735         1.809307         3.642059
 H        -0.710391         3.568706         3.465306
 H         1.011826         2.440342         1.151295
 H         1.096924         1.643072         2.785452
