19
Iteration:  2818charge 0 multiplicity 1
 O        -2.724649         3.890393         1.395474
 C        -1.943522         2.750040         1.656488
 C        -1.420258         1.953214         0.376304
 C        -0.570950         0.929506         1.212362
 O         0.103625         0.012157         0.430302
 C        -1.599742         0.447567         2.374478
 C        -1.941240         1.861682         2.923088
 C        -0.773180         2.693863         2.760630
 C         0.279019         1.815475         2.200607
 H        -3.675469         3.676150         1.173094
 H        -2.137142         1.516112        -0.268153
 H        -0.708083         2.551714        -0.172213
 H         0.445371        -0.586081         1.067416
 H        -2.374010        -0.184781         1.969680
 H        -1.160905        -0.331957         3.035125
 H        -2.640988         1.964123         3.766177
 H        -0.449818         3.392524         3.553853
 H         1.189346         2.336823         1.682460
 H         0.761900         1.219204         3.032564
