19
Iteration:  1784charge 0 multiplicity 1
 O        -2.712116         3.889247         1.287832
 C        -1.916928         2.765614         1.729364
 C        -1.452312         1.960620         0.537479
 C        -0.497264         0.959833         1.290079
 O         0.015992        -0.018783         0.419215
 C        -1.576457         0.418456         2.283164
 C        -2.024929         1.741586         2.864844
 C        -0.804462         2.686892         2.735614
 C         0.337402         1.868029         2.175998
 H        -2.413623         4.599942         1.906253
 H        -2.277524         1.298027         0.074435
 H        -1.010331         2.474072        -0.302999
 H         0.770504        -0.469979         0.978765
 H        -2.381655        -0.103179         1.783582
 H        -1.172461        -0.317423         3.057839
 H        -2.792023         1.708561         3.646376
 H        -0.619271         3.412819         3.567896
 H         1.005075         2.633793         1.711818
 H         0.917455         1.426114         2.959095
