19
Iteration:  2911charge 0 multiplicity 1
 O        -2.601908         3.952322         1.449413
 C        -1.857902         2.721542         1.653078
 C        -1.494815         1.863396         0.493875
 C        -0.550975         0.907814         1.358725
 O         0.144441         0.089842         0.383070
 C        -1.667561         0.413487         2.334214
 C        -2.056797         1.742162         2.866613
 C        -0.870812         2.696820         2.705815
 C         0.359381         1.897376         2.158121
 H        -3.420665         3.847932         0.965132
 H        -2.412379         1.281281         0.084731
 H        -0.909941         2.321295        -0.443647
 H         0.669729        -0.565775         0.968511
 H        -2.530583        -0.045586         1.840608
 H        -1.431070        -0.260174         3.095611
 H        -2.745546         1.799808         3.679427
 H        -0.524896         3.550923         3.304901
 H         0.973137         2.468973         1.538115
 H         1.007284         1.426495         2.907897
