19
Iteration:  3589charge 0 multiplicity 1
 O        -2.696978         3.890836         1.529086
 C        -1.906405         2.748305         1.658722
 C        -1.528617         1.847058         0.437644
 C        -0.565526         0.993374         1.235774
 O         0.094156        -0.088209         0.563976
 C        -1.590405         0.512564         2.343728
 C        -2.088387         1.813889         2.747607
 C        -0.703486         2.782337         2.658086
 C         0.396375         1.823209         2.092484
 H        -3.611733         3.586812         1.839063
 H        -2.353578         1.240991         0.039201
 H        -1.144530         2.525799        -0.441982
 H         1.043053         0.020449         0.620473
 H        -2.288676        -0.129199         1.782927
 H        -1.067817         0.010757         3.226592
 H        -2.735282         1.879149         3.572139
 H        -0.701325         3.510767         3.464291
 H         1.223057         2.488691         1.595163
 H         0.795649         1.178922         2.830661
