19
Iteration:  3072
 O        -2.634173         3.893261         1.485083
 C        -1.861497         2.782354         1.588146
 C        -1.341817         1.932063         0.456169
 C        -0.595820         0.954381         1.358557
 O        -0.006253         0.043384         0.438821
 C        -1.611059         0.365619         2.370222
 C        -2.081671         1.745989         2.764598
 C        -0.820370         2.647935         2.801742
 C         0.335829         1.923196         2.140548
 H        -3.288433         3.792950         0.796068
 H        -2.123974         1.284418        -0.011024
 H        -0.799255         2.267361        -0.455132
 H         0.884305        -0.246265         0.750693
 H        -2.292618        -0.249407         1.709654
 H        -1.161535        -0.374881         3.171459
 H        -2.827626         2.093926         3.464715
 H        -0.706693         3.395605         3.594172
 H         0.890680         2.827519         1.694598
 H         1.061158         1.410762         2.852850
