19
Iteration:  4722charge 0 multiplicity 1
 O        -2.776916         3.839321         1.369167
 C        -1.895189         2.802571         1.671039
 C        -1.631371         1.721387         0.596103
 C        -0.595684         0.824763         1.357629
 O         0.146860         0.067515         0.405888
 C        -1.643704         0.307398         2.464552
 C        -1.869109         1.860218         2.955907
 C        -0.679639         2.864393         2.583418
 C         0.321081         1.961389         1.967075
 H        -2.357065         4.619711         1.712911
 H        -2.512380         1.197692         0.337454
 H        -1.135462         2.103194        -0.276348
 H         0.413393        -0.800287         0.552141
 H        -2.624005        -0.060199         2.009655
 H        -1.257905        -0.259987         3.264246
 H        -2.309115         2.142264         3.952006
 H        -0.405192         3.710259         3.287852
 H         0.754029         2.419085         1.011009
 H         1.110189         1.715635         2.700669
