19
Iteration:  1352
 O        -2.725226         3.855838         1.649009
 C        -1.969770         2.730960         1.673394
 C        -1.466241         1.972961         0.430644
 C        -0.555165         0.984209         1.196909
 O         0.189172        -0.209965         0.639726
 C        -1.683700         0.434374         2.213981
 C        -2.051440         1.845985         2.747101
 C        -0.812630         2.708928         2.685664
 C         0.360754         1.928990         2.092228
 H        -2.150698         4.619605         1.439970
 H        -2.135807         1.419449        -0.108809
 H        -0.736097         2.474380        -0.249871
 H         0.614504         0.090449        -0.126720
 H        -2.483390        -0.054288         1.540369
 H        -1.274793        -0.288438         2.912492
 H        -2.736044         2.098960         3.550390
 H        -0.655892         3.543185         3.440972
 H         1.151732         2.471843         1.623593
 H         0.790262         1.405324         2.998378
