19
Iteration:   738
 O        -2.729428         3.914036         1.533860
 C        -1.860643         2.800857         1.677017
 C        -1.279164         2.110591         0.406372
 C        -0.502268         0.998631         1.181799
 O         0.161260        -0.066792         0.671315
 C        -1.676098         0.378857         2.107347
 C        -2.184957         1.703033         2.678988
 C        -0.808471         2.671470         2.752360
 C         0.320016         1.761624         2.285137
 H        -3.420228         3.961021         2.209307
 H        -2.134864         1.994959        -0.220167
 H        -0.627950         2.776711        -0.076888
 H         0.384944         0.046107        -0.316416
 H        -2.499403        -0.149712         1.551130
 H        -1.255358        -0.297498         2.850602
 H        -2.978557         1.780464         3.397714
 H        -0.803546         3.330441         3.612446
 H         1.151888         2.289159         1.848458
 H         0.852983         1.013296         2.905882
