19
Iteration:  3831
 O        -2.882882         3.855982         1.584433
 C        -1.880864         2.789223         1.672495
 C        -1.304259         1.979576         0.405654
 C        -0.567135         0.968334         1.296543
 O         0.021030        -0.223440         0.591252
 C        -1.657366         0.422695         2.272206
 C        -1.951179         1.767808         2.852841
 C        -0.729217         2.769166         2.689491
 C         0.353001         1.965057         1.999760
 H        -2.976823         4.141898         0.677963
 H        -2.158934         1.528475        -0.119452
 H        -0.706417         2.608036        -0.333526
 H         0.987007        -0.287922         0.928987
 H        -2.482529         0.034857         1.640882
 H        -1.187761        -0.347996         3.058795
 H        -2.538450         1.814794         3.717406
 H        -0.507321         3.581064         3.367087
 H         0.834500         2.675266         1.261174
 H         1.034988         1.582830         2.839611
