19
Iteration:  3460
 O        -2.696036         3.806829         1.476262
 C        -1.882871         2.711926         1.632613
 C        -1.382745         1.965963         0.435479
 C        -0.582815         0.958571         1.315353
 O         0.059049        -0.035728         0.530852
 C        -1.622225         0.412028         2.319307
 C        -2.054769         1.813680         2.799311
 C        -0.779362         2.648378         2.726212
 C         0.292608         2.005835         2.020931
 H        -3.008061         3.935271         2.372345
 H        -2.083030         1.636095        -0.340162
 H        -0.528080         2.404180        -0.201353
 H         0.702397        -0.507519         1.194345
 H        -2.437216        -0.162936         1.928704
 H        -1.267372        -0.272337         3.140357
 H        -2.646239         1.784411         3.702187
 H        -0.563447         3.566732         3.290980
 H         0.634160         2.805806         1.259989
 H         1.204592         1.675755         2.649804
