19
Iteration:  3138
 O        -2.701948         3.884436         1.543744
 C        -1.901778         2.766354         1.590014
 C        -1.354377         1.964241         0.421280
 C        -0.544520         0.989250         1.266927
 O         0.127421        -0.023505         0.502896
 C        -1.548585         0.404300         2.283658
 C        -2.113450         1.824822         2.744520
 C        -0.806361         2.691927         2.685738
 C         0.316359         1.863826         2.222808
 H        -3.536961         3.643799         2.025658
 H        -2.213480         1.520347        -0.076243
 H        -0.717481         2.440778        -0.387391
 H        -0.233209        -0.859100         0.806905
 H        -2.274876        -0.237220         1.763057
 H        -1.188756        -0.166909         3.157020
 H        -2.815271         2.027385         3.580484
 H        -0.727226         3.540519         3.345880
 H         1.117274         2.300793         1.637249
 H         0.897618         1.368081         2.925401
