19
Iteration:  1834charge 0 multiplicity 1
 O        -2.830739         3.939174         1.387625
 C        -1.896847         2.809948         1.653588
 C        -1.395450         1.965887         0.505068
 C        -0.592580         0.894464         1.321427
 O         0.167994        -0.011981         0.505331
 C        -1.566190         0.369190         2.353401
 C        -2.044650         1.823623         2.826056
 C        -0.763961         2.735978         2.671998
 C         0.389496         1.808747         2.099760
 H        -3.352356         3.954616         2.228224
 H        -1.952521         1.508874        -0.259218
 H        -0.611037         2.550196        -0.049442
 H        -0.467536        -0.676346         0.164731
 H        -2.417010        -0.196744         1.828698
 H        -1.104848        -0.294628         3.068222
 H        -2.630545         1.993210         3.741846
 H        -0.706450         3.529318         3.372794
 H         1.258475         2.125114         1.518200
 H         0.708357         1.187522         3.025376
