19
Iteration:  1542
 O        -2.821256         3.745681         1.330162
 C        -1.854585         2.786069         1.633266
 C        -1.380694         2.029138         0.500349
 C        -0.665427         0.870506         1.292676
 O         0.076595         0.143466         0.387160
 C        -1.623351         0.396088         2.417879
 C        -1.953266         1.854314         2.892011
 C        -0.673437         2.725058         2.737932
 C         0.346189         1.716664         2.297630
 H        -2.512606         4.215372         0.532144
 H        -2.246371         1.724015        -0.121591
 H        -0.601140         2.499978        -0.056242
 H        -0.625307        -0.205409        -0.276075
 H        -2.443425        -0.259238         2.052501
 H        -1.185416        -0.085532         3.377708
 H        -2.747102         1.862639         3.622071
 H        -0.389571         3.634068         3.335772
 H         1.270842         2.066167         1.721157
 H         0.723061         1.190488         3.183121
