19
Iteration:  1941
 O        -2.669651         3.844492         1.376990
 C        -1.810431         2.708995         1.638526
 C        -1.452169         1.926351         0.499189
 C        -0.560998         0.958818         1.314019
 O         0.005359         0.097626         0.391536
 C        -1.537770         0.406725         2.393398
 C        -2.044251         1.762861         2.874937
 C        -0.759551         2.728109         2.762360
 C         0.319235         1.930021         2.155316
 H        -3.508443         3.450245         0.988997
 H        -2.361528         1.330623         0.229759
 H        -0.766073         2.467769        -0.231732
 H         0.217193        -0.748176         0.797168
 H        -2.344367        -0.209173         1.819100
 H        -1.280866        -0.254164         3.244736
 H        -2.747079         1.999760         3.650084
 H        -0.804284         3.563557         3.431615
 H         1.070917         2.497440         1.567991
 H         0.984682         1.179029         2.656815
