19
Iteration:  3146
 O        -2.661224         3.812473         1.519384
 C        -1.827572         2.779502         1.628296
 C        -1.353719         1.947848         0.460737
 C        -0.460975         0.974649         1.268771
 O         0.119223        -0.011165         0.462153
 C        -1.625090         0.427517         2.340944
 C        -2.127593         1.801949         2.701216
 C        -0.824681         2.686219         2.764496
 C         0.285986         1.904586         2.157959
 H        -3.538232         3.728437         1.971062
 H        -2.245770         1.344943        -0.018165
 H        -0.875872         2.572485        -0.282584
 H        -0.354166        -0.789681         0.634799
 H        -2.367300        -0.197293         1.901874
 H        -1.127801        -0.012229         3.135224
 H        -2.879344         2.201059         3.353117
 H        -0.715165         3.554836         3.398530
 H         0.907107         2.597186         1.487345
 H         0.760685         1.316039         2.949572
