19
Iteration:  1996charge 0 multiplicity 1
 O        -2.774352         3.867090         1.657832
 C        -1.876946         2.758939         1.588257
 C        -1.451052         1.994976         0.384588
 C        -0.601660         0.936816         1.131564
 O         0.170524        -0.066227         0.790655
 C        -1.512660         0.481052         2.209096
 C        -2.023190         1.798437         2.795638
 C        -0.735028         2.759607         2.582958
 C         0.317064         1.836597         2.105555
 H        -3.649014         3.568510         1.993969
 H        -2.295884         1.484418        -0.225181
 H        -0.998795         2.612124        -0.498854
 H        -0.137006        -0.619640        -0.019349
 H        -2.444389        -0.179341         2.013175
 H        -0.877664        -0.112035         2.892223
 H        -2.885535         2.015670         3.470459
 H        -0.579095         3.521676         3.376022
 H         1.069664         2.373005         1.489170
 H         0.745399         1.132302         2.880178
