19
Iteration:   547charge 0 multiplicity 1
 O        -2.653265         3.897333         1.421582
 C        -1.839828         2.767914         1.734123
 C        -1.267330         2.024248         0.487349
 C        -0.497559         0.927464         1.277755
 O         0.145069         0.023471         0.353727
 C        -1.650239         0.322573         2.200575
 C        -2.250777         1.711150         2.708717
 C        -0.891040         2.614321         2.873132
 C         0.271487         1.838504         2.351859
 H        -2.681304         4.640595         2.086019
 H        -2.155585         1.627310        -0.046430
 H        -0.705909         2.702907        -0.152775
 H         0.837257         0.397972        -0.221728
 H        -2.444536        -0.130260         1.615939
 H        -1.391094        -0.290947         3.099431
 H        -2.950706         2.033769         3.458216
 H        -0.937449         3.501224         3.506893
 H         0.914878         2.515166         1.738199
 H         0.825609         1.187865         3.013523
