19
Iteration:   100
 O        -2.543430         4.054965         1.696907
 C        -1.997519         2.725170         1.658905
 C        -1.551565         1.881876         0.428154
 C        -0.597215         0.894775         1.234743
 O         0.229220         0.043773         0.550501
 C        -1.563254         0.303206         2.210271
 C        -2.042248         1.658615         2.718527
 C        -0.881382         2.802426         2.632625
 C         0.284722         1.904629         2.114278
 H        -3.308290         4.061926         1.137629
 H        -2.397838         1.327310         0.071701
 H        -1.137590         2.559124        -0.304121
 H         0.704270        -0.510320         1.175160
 H        -2.236663        -0.436005         1.800968
 H        -1.200307        -0.169135         3.139468
 H        -2.692930         1.632607         3.620661
 H        -0.764879         3.699577         3.286709
 H         1.017543         2.275700         1.435562
 H         0.908015         1.343150         2.818473
