19
Iteration:  2375charge 0 multiplicity 1
 O        -2.684903         3.876880         1.605194
 C        -1.912653         2.747921         1.597041
 C        -1.531668         1.851638         0.418390
 C        -0.582522         0.989700         1.203208
 O         0.042508        -0.148346         0.607525
 C        -1.542435         0.478558         2.352587
 C        -2.028537         1.814306         2.798963
 C        -0.800967         2.734499         2.664573
 C         0.435907         1.980856         2.038612
 H        -3.622824         3.797329         1.250677
 H        -2.437797         1.242535        -0.039517
 H        -0.843235         2.275152        -0.433539
 H         1.021935        -0.107973         0.623917
 H        -2.256092        -0.156690         1.899813
 H        -0.997399        -0.202944         3.018898
 H        -2.680872         2.157468         3.621767
 H        -0.738640         3.455383         3.505092
 H         1.110914         2.674126         1.588359
 H         0.950059         1.440369         2.793294
