19
Iteration:   949
 O        -2.620222         3.970774         1.490924
 C        -1.854025         2.812516         1.682643
 C        -1.438243         2.080791         0.488426
 C        -0.522933         0.888697         1.252443
 O         0.277893        -0.137846         0.599522
 C        -1.647435         0.398839         2.192767
 C        -2.114046         1.761440         2.734311
 C        -0.918011         2.609153         2.756404
 C         0.260391         1.845383         2.132883
 H        -3.348275         3.880458         2.112736
 H        -2.387829         1.650317         0.102084
 H        -0.986965         2.644006        -0.308764
 H         0.279099         0.118748        -0.347503
 H        -2.476514        -0.087253         1.640133
 H        -1.273609        -0.111507         3.075388
 H        -2.805613         1.950351         3.511415
 H        -0.869715         3.406322         3.485372
 H         0.976825         2.455623         1.596729
 H         0.869923         1.401687         2.918003
