19
Iteration:  4790
 O        -2.877609         3.713965         1.675271
 C        -1.877244         2.773000         1.612580
 C        -1.393482         1.939304         0.445055
 C        -0.484613         0.901951         1.358329
 O        -0.143533        -0.204317         0.558687
 C        -1.530055         0.408118         2.367272
 C        -1.983036         1.847300         2.788038
 C        -0.671214         2.878382         2.586513
 C         0.412169         2.042927         1.970212
 H        -3.078330         4.194865         0.863538
 H        -2.042816         1.370281        -0.203826
 H        -0.768437         2.605177        -0.153846
 H         0.686150        -0.541422         0.962498
 H        -2.258196        -0.148385         1.687733
 H        -1.148265        -0.164191         3.196323
 H        -2.546070         2.195342         3.664135
 H        -0.459033         3.776051         3.126987
 H         0.745142         2.681088         1.056462
 H         1.199629         1.774614         2.640728
