19
Iteration:   207charge 0 multiplicity 1
 O        -2.624526         3.875258         1.616269
 C        -1.862064         2.754725         1.651835
 C        -1.327192         2.067967         0.381123
 C        -0.652148         0.984554         1.215046
 O         0.213319         0.024729         0.554625
 C        -1.669091         0.389232         2.219942
 C        -2.082073         1.721207         2.757846
 C        -0.846033         2.682126         2.742991
 C         0.271595         1.869268         2.165778
 H        -3.514099         3.520703         1.499247
 H        -2.145112         1.588368        -0.320693
 H        -0.658803         2.608193        -0.310149
 H        -0.097385        -0.880485         0.766999
 H        -2.574552        -0.192120         1.790840
 H        -1.124548        -0.244290         2.930586
 H        -2.799429         1.805984         3.593388
 H        -0.694265         3.528266         3.449788
 H         1.049803         2.377057         1.475112
 H         0.827153         1.271554         2.888435
