19
Iteration:  3996
 O        -2.739316         3.847005         1.451777
 C        -1.960520         2.708422         1.676551
 C        -1.477942         1.934439         0.534067
 C        -0.579557         0.885221         1.294449
 O         0.154101         0.025119         0.423396
 C        -1.596414         0.430374         2.462539
 C        -1.922045         1.907250         2.893607
 C        -0.725701         2.787443         2.526853
 C         0.312999         1.801526         2.064232
 H        -3.678139         3.575774         1.276911
 H        -2.287940         1.574557        -0.097263
 H        -0.763536         2.436858        -0.115218
 H         0.096617        -0.858672         0.905218
 H        -2.441197         0.030125         1.958717
 H        -1.062225        -0.184806         3.140659
 H        -2.498962         2.021444         3.818923
 H        -0.508683         3.649979         3.161608
 H         1.042074         2.449365         1.573542
 H         0.537201         1.302519         3.048359
