19
Iteration:  2251
 O        -2.657126         3.833286         1.641374
 C        -1.954133         2.675835         1.654899
 C        -1.398578         1.935684         0.404718
 C        -0.567726         0.996653         1.229568
 O         0.185841        -0.173930         0.651770
 C        -1.568178         0.460177         2.309742
 C        -2.046115         1.822673         2.845416
 C        -0.802777         2.828721         2.591170
 C         0.302341         1.976261         2.011903
 H        -3.649154         3.656080         1.598747
 H        -2.251140         1.389297        -0.218227
 H        -0.893242         2.548472        -0.325210
 H        -0.358212        -0.467655        -0.113579
 H        -2.472379         0.014943         1.936669
 H        -1.046632        -0.102428         3.050721
 H        -2.780192         1.838987         3.698532
 H        -0.604872         3.648735         3.280340
 H         0.792729         2.584826         1.334056
 H         0.914464         1.387547         2.619435
