19
Iteration:  3675charge 0 multiplicity 1
 O        -2.864003         3.765648         1.511504
 C        -1.841419         2.808038         1.631723
 C        -1.394933         1.919360         0.390846
 C        -0.583784         0.933344         1.269696
 O         0.041428        -0.120256         0.545892
 C        -1.589417         0.417704         2.374095
 C        -1.946656         1.877274         2.867723
 C        -0.724510         2.739160         2.710031
 C         0.327565         1.901268         2.115256
 H        -2.567452         4.645024         1.228394
 H        -2.207418         1.367721        -0.022130
 H        -0.662334         2.356060        -0.220012
 H         0.188998         0.242955        -0.293256
 H        -2.386689        -0.111875         1.779736
 H        -1.000583        -0.309529         2.999443
 H        -2.777936         2.182552         3.494025
 H        -0.611762         3.585856         3.357487
 H         1.054243         2.484811         1.627412
 H         0.838007         1.466780         2.935213
