19
Iteration:  4807charge 0 multiplicity 1
 O        -2.936889         3.679050         1.627432
 C        -1.898042         2.728326         1.668629
 C        -1.413697         1.907643         0.405894
 C        -0.577647         0.957318         1.237424
 O        -0.006924        -0.132459         0.564567
 C        -1.632903         0.571967         2.396405
 C        -1.863282         1.932683         2.893619
 C        -0.675989         2.738786         2.623132
 C         0.453533         1.951022         1.917335
 H        -2.816087         4.157121         0.781802
 H        -2.318035         1.484571        -0.077996
 H        -0.770810         2.350952        -0.382238
 H         0.839599        -0.361889         1.041032
 H        -2.592990         0.155467         2.117846
 H        -1.117902        -0.147778         3.067522
 H        -2.723438         2.083675         3.590233
 H        -0.629223         3.599244         3.335010
 H         1.044978         2.459559         1.196931
 H         1.146080         1.414660         2.664548
