19
Iteration:  4667charge 0 multiplicity 1
 O        -2.937465         3.755468         1.490656
 C        -1.821134         2.827681         1.586321
 C        -1.482630         1.983186         0.397509
 C        -0.634801         0.937940         1.196451
 O        -0.102362        -0.200733         0.560785
 C        -1.406952         0.458545         2.548569
 C        -1.861937         1.783487         2.859566
 C        -0.749438         2.786856         2.642805
 C         0.438393         1.970471         1.961998
 H        -2.896762         4.447110         2.172631
 H        -2.281927         1.705921        -0.237747
 H        -0.724158         2.340621        -0.271329
 H         0.542155        -0.566837         1.114862
 H        -2.295040        -0.192033         2.271867
 H        -0.753216        -0.050770         3.234748
 H        -2.723147         2.077508         3.399518
 H        -0.528473         3.663683         3.329338
 H         1.049581         2.621720         1.283502
 H         1.130388         1.490993         2.663310
