19
Iteration:  1456
 O        -2.717673         3.955621         1.664767
 C        -1.941572         2.756675         1.578127
 C        -1.456559         1.977353         0.454694
 C        -0.529394         0.863246         1.241716
 O         0.306868        -0.099775         0.579018
 C        -1.614803         0.414927         2.312391
 C        -2.118506         1.865030         2.745683
 C        -0.816321         2.667621         2.697198
 C         0.260901         1.830508         2.003100
 H        -2.119201         4.741621         1.767780
 H        -2.410296         1.557474        -0.106040
 H        -0.901654         2.625433        -0.226007
 H        -0.163339        -0.992678         0.552383
 H        -2.369141        -0.237040         1.882413
 H        -1.312762        -0.058970         3.283348
 H        -2.992209         2.219715         3.244034
 H        -0.756280         3.542548         3.365595
 H         0.953195         2.480471         1.312405
 H         0.920902         1.322084         2.741917
