19
Iteration:   168
 O        -2.944401         3.877114         1.462522
 C        -1.875720         2.856295         1.666323
 C        -1.235360         2.058126         0.467486
 C        -0.500109         0.973965         1.330891
 O         0.034853        -0.040352         0.499173
 C        -1.655136         0.415223         2.166873
 C        -1.955406         1.714745         2.817216
 C        -0.694841         2.740445         2.730049
 C         0.395537         1.769680         2.259336
 H        -3.721059         3.288951         1.384911
 H        -1.960977         1.651445        -0.269198
 H        -0.434471         2.653647        -0.026325
 H        -0.432035        -0.072418        -0.325884
 H        -2.400382        -0.102050         1.617750
 H        -1.291351        -0.346537         2.906260
 H        -2.508963         1.737247         3.735148
 H        -0.777625         3.469974         3.523699
 H         1.225325         2.240539         1.799853
 H         0.783210         1.158197         3.120165
