19
Iteration:   988
 O        -2.717438         3.848117         1.690606
 C        -1.876660         2.757603         1.596892
 C        -1.271590         2.052680         0.405330
 C        -0.534012         0.957357         1.231916
 O         0.134626        -0.137795         0.649531
 C        -1.704794         0.491472         2.186027
 C        -2.016355         1.773359         2.787972
 C        -0.849222         2.728168         2.611711
 C         0.303897         1.831459         2.216003
 H        -3.536600         3.776012         1.119627
 H        -2.105037         1.768525        -0.266336
 H        -0.522180         2.700245        -0.183364
 H         0.095267        -0.089913        -0.339412
 H        -2.491377         0.028564         1.570702
 H        -1.360189        -0.319337         2.870009
 H        -2.775463         1.866990         3.559716
 H        -0.688617         3.550751         3.290694
 H         0.995674         2.431398         1.587334
 H         0.780312         1.214714         3.044378
