19
Iteration:   868charge 0 multiplicity 1
 O        -2.821776         3.850730         1.618945
 C        -1.917769         2.781526         1.639770
 C        -1.251628         2.093460         0.335099
 C        -0.518938         1.009513         1.273454
 O         0.092522        -0.099268         0.584010
 C        -1.663760         0.420248         2.185196
 C        -2.060123         1.747977         2.746555
 C        -0.843801         2.641889         2.717693
 C         0.306849         1.777745         2.248131
 H        -2.469842         4.492165         1.011840
 H        -1.882685         1.676850        -0.483484
 H        -0.415393         2.702844        -0.180977
 H         0.962309         0.195805         0.391365
 H        -2.435236         0.102932         1.494482
 H        -1.492462        -0.352874         2.932817
 H        -2.699284         1.938277         3.646196
 H        -0.603290         3.287661         3.577628
 H         0.943944         2.422378         1.675895
 H         0.813412         1.235697         3.053779
