19
Iteration:  2497
 O        -2.654775         3.919178         1.570606
 C        -1.886474         2.790992         1.700229
 C        -1.506175         1.936967         0.403893
 C        -0.630507         0.882881         1.282179
 O         0.135321        -0.066699         0.604376
 C        -1.582500         0.390957         2.354443
 C        -2.066482         1.782509         2.774046
 C        -0.768653         2.717615         2.633739
 C         0.289646         1.923049         2.010798
 H        -3.380739         3.771863         0.969467
 H        -2.459229         1.480568         0.027011
 H        -0.757305         2.303979        -0.331303
 H         1.008446         0.237723         0.685818
 H        -2.348535        -0.273546         2.123897
 H        -1.018864        -0.136003         3.133807
 H        -2.664968         1.933578         3.632878
 H        -0.484388         3.568205         3.228205
 H         0.967397         2.344954         1.254222
 H         0.936182         1.431617         2.679583
