19
Iteration:  1329charge 0 multiplicity 1
 O        -2.742398         4.036590         1.496764
 C        -1.911604         2.848147         1.646858
 C        -1.497392         1.990904         0.381219
 C        -0.547452         0.899139         1.283145
 O         0.133421        -0.118831         0.637230
 C        -1.563069         0.342022         2.221097
 C        -2.001988         1.709067         2.842211
 C        -0.874252         2.688669         2.727996
 C         0.288346         1.804267         2.065919
 H        -2.376500         4.685879         2.129928
 H        -2.381630         1.506057         0.092429
 H        -0.984474         2.498434        -0.504651
 H         1.074925         0.262669         0.516542
 H        -2.218235        -0.350779         1.587101
 H        -1.036071        -0.263869         2.950186
 H        -2.560591         1.659890         3.741573
 H        -0.654923         3.646536         3.248589
 H         0.845827         2.447308         1.450986
 H         0.989554         1.235686         2.732822
