19
Iteration:  3850charge 0 multiplicity 1
 O        -2.733328         3.791610         1.531993
 C        -1.945468         2.709301         1.711818
 C        -1.434673         2.057765         0.477658
 C        -0.611339         0.915370         1.247604
 O         0.030278        -0.129568         0.572199
 C        -1.523692         0.396234         2.309751
 C        -1.965126         1.834161         2.888011
 C        -0.812194         2.741823         2.623991
 C         0.332026         1.920239         2.010670
 H        -2.685730         4.087579         0.637944
 H        -1.993669         1.898425        -0.411062
 H        -0.755577         2.799511         0.067293
 H         0.922675        -0.309517         0.892351
 H        -2.456041        -0.060893         2.012126
 H        -1.076893        -0.155850         3.066399
 H        -2.763744         2.145196         3.530024
 H        -0.752296         3.693046         3.199179
 H         1.022576         2.422007         1.364347
 H         0.978844         1.379850         2.855758
