19
Iteration:  3943
 O        -2.843333         3.869378         1.421990
 C        -1.891094         2.777462         1.717459
 C        -1.419305         2.056667         0.457524
 C        -0.523992         0.924837         1.229593
 O         0.078801        -0.185839         0.580472
 C        -1.529332         0.432721         2.344933
 C        -2.030662         1.751763         2.826066
 C        -0.770046         2.777145         2.692520
 C         0.377176         1.910342         1.970885
 H        -3.088951         4.360955         2.249336
 H        -2.308463         1.752964        -0.138205
 H        -0.841871         2.697374        -0.217898
 H        -0.148659        -0.930980         1.212558
 H        -2.223687        -0.363150         1.968738
 H        -0.747807        -0.084859         3.052102
 H        -2.753513         1.771445         3.671767
 H        -0.708614         3.577589         3.446705
 H         1.030593         2.451763         1.171499
 H         1.143032         1.657185         2.776283
