19
Iteration:  2562charge 0 multiplicity 1
 O        -2.794504         3.842155         1.397861
 C        -1.864305         2.763576         1.609422
 C        -1.297976         2.010105         0.397607
 C        -0.623415         0.922516         1.323177
 O         0.063993        -0.011488         0.529952
 C        -1.545389         0.426983         2.413194
 C        -1.995800         1.806395         2.820917
 C        -0.729388         2.692954         2.753948
 C         0.331043         1.870894         2.096580
 H        -3.650246         3.609753         1.873388
 H        -2.209981         1.712013        -0.238771
 H        -0.460252         2.487607        -0.128185
 H        -0.704404        -0.468829         0.159075
 H        -2.359914        -0.137642         1.925547
 H        -1.260360        -0.217545         3.261987
 H        -2.787565         1.973946         3.524941
 H        -0.517504         3.512925         3.460752
 H         1.120952         2.509171         1.591606
 H         0.902243         1.212099         2.851856
