19
Iteration:  2144
 O        -2.811006         3.878747         1.602685
 C        -1.894787         2.861006         1.650062
 C        -1.468629         2.005623         0.350916
 C        -0.571101         0.972146         1.212534
 O         0.228861        -0.180532         0.658459
 C        -1.584362         0.415285         2.259257
 C        -2.007815         1.840923         2.786242
 C        -0.736976         2.757137         2.719428
 C         0.392054         1.871509         2.014910
 H        -3.727540         3.475909         1.580269
 H        -2.330231         1.492584        -0.031095
 H        -1.105496         2.654525        -0.377249
 H        -0.450659        -0.816615         0.645741
 H        -2.391209        -0.202856         1.894860
 H        -1.075998        -0.186680         3.082995
 H        -2.900855         1.888812         3.487146
 H        -0.673139         3.488285         3.560287
 H         1.145885         2.442342         1.403208
 H         0.971467         1.316484         2.767520
