19
Iteration:  2410
 O        -2.840803         3.863635         1.458011
 C        -1.936298         2.774099         1.671087
 C        -1.395042         1.949613         0.469560
 C        -0.591426         0.911602         1.244961
 O         0.153806        -0.157962         0.565933
 C        -1.630161         0.435855         2.383483
 C        -1.903609         1.858927         2.906198
 C        -0.744724         2.805477         2.612962
 C         0.354565         1.863131         2.066340
 H        -3.735679         3.478189         1.718785
 H        -2.183994         1.639007        -0.281256
 H        -0.473361         2.525816        -0.072066
 H         0.094731         0.117246        -0.351099
 H        -2.551423         0.035543         1.899273
 H        -1.157074        -0.221503         3.152780
 H        -2.523240         2.184124         3.768710
 H        -0.578573         3.503479         3.420910
 H         1.089594         2.368971         1.372430
 H         0.848649         1.292170         2.845789
