19
Iteration:  2352charge 0 multiplicity 1
 O        -2.688854         4.045353         1.538670
 C        -1.901496         2.752779         1.650000
 C        -1.522582         1.899132         0.482311
 C        -0.550794         0.901880         1.264225
 O         0.116376        -0.125920         0.471068
 C        -1.450840         0.400996         2.412462
 C        -2.058512         1.746301         2.832216
 C        -0.853159         2.790330         2.666555
 C         0.287631         1.870917         2.026130
 H        -3.478532         3.858698         1.018966
 H        -2.422116         1.289295        -0.045215
 H        -0.849102         2.370971        -0.276457
 H         0.816988        -0.601016         1.060051
 H        -2.059688        -0.372521         2.070641
 H        -0.924860         0.003316         3.286149
 H        -2.726031         1.869466         3.661113
 H        -0.637976         3.735574         3.205786
 H         0.641021         2.526324         1.283019
 H         1.071761         1.666415         2.682271
