19
Iteration:  2915
 O        -2.607981         3.974131         1.446387
 C        -1.872567         2.756817         1.627106
 C        -1.502680         1.833030         0.471461
 C        -0.528894         0.903817         1.410382
 O         0.149178         0.070927         0.351043
 C        -1.656986         0.445864         2.341573
 C        -2.081306         1.740666         2.861847
 C        -0.851668         2.682270         2.746937
 C         0.355873         1.915750         2.176818
 H        -3.426213         3.688799         0.945729
 H        -2.390537         1.231475         0.132620
 H        -0.876404         2.237948        -0.244238
 H         0.675810        -0.590791         0.727549
 H        -2.531401         0.023056         1.802086
 H        -1.401009        -0.415946         3.123062
 H        -2.841005         1.781067         3.676517
 H        -0.462655         3.500543         3.339960
 H         0.941453         2.558049         1.367529
 H         0.993303         1.340648         2.844214
