19
Iteration:  2973charge 0 multiplicity 1
 O        -2.744510         3.906594         1.594027
 C        -2.011923         2.738678         1.580552
 C        -1.279420         2.014480         0.424468
 C        -0.544695         1.005090         1.211967
 O         0.072260        -0.124505         0.549258
 C        -1.609063         0.462256         2.222377
 C        -1.976111         1.782386         2.822655
 C        -0.819264         2.726501         2.683864
 C         0.313241         1.847647         2.171054
 H        -3.616199         3.639947         1.287240
 H        -2.005411         1.623516        -0.228652
 H        -0.685930         2.644773        -0.258351
 H         0.545576        -0.693240         1.271624
 H        -2.549424        -0.080456         1.958050
 H        -0.985117        -0.189776         2.975391
 H        -2.704491         1.934907         3.598206
 H        -0.501395         3.582663         3.285156
 H         1.182807         2.365364         1.626566
 H         0.874855         1.140500         2.896603
