19
Iteration:  1762charge 0 multiplicity 1
 O        -2.743838         3.975941         1.496696
 C        -1.937900         2.777984         1.670053
 C        -1.397741         1.974772         0.423535
 C        -0.585480         0.909764         1.285003
 O         0.099512        -0.126751         0.588124
 C        -1.589381         0.338156         2.289397
 C        -2.049078         1.737351         2.809878
 C        -0.849650         2.713767         2.645948
 C         0.322201         1.905455         2.080831
 H        -2.322580         4.739613         1.922916
 H        -2.222195         1.787110        -0.323272
 H        -0.583755         2.449117        -0.107051
 H         1.009909         0.063059         0.677125
 H        -2.260078        -0.344588         1.788537
 H        -1.025063        -0.261725         3.085915
 H        -2.752923         1.859024         3.635873
 H        -0.787660         3.460507         3.455099
 H         1.065163         2.431989         1.374965
 H         0.895282         1.338010         2.784608
