19
Iteration:  2243
 O        -2.665296         3.902465         1.618079
 C        -1.919537         2.722624         1.612238
 C        -1.500150         1.934177         0.405555
 C        -0.547068         0.896905         1.270334
 O         0.183843        -0.150161         0.643940
 C        -1.560056         0.453641         2.273462
 C        -2.016657         1.784390         2.861730
 C        -0.826216         2.790043         2.632944
 C         0.333536         1.985740         2.044245
 H        -3.595504         3.542203         1.473215
 H        -2.378619         1.348455         0.012887
 H        -1.014061         2.527011        -0.375682
 H        -0.219612        -0.458454        -0.231223
 H        -2.385766        -0.069584         1.798848
 H        -1.080512        -0.229101         3.038978
 H        -2.629292         2.070045         3.706991
 H        -0.821924         3.643624         3.293966
 H         0.875614         2.487153         1.220197
 H         1.074159         1.693095         2.784705
