19
Iteration:  4012
 O        -2.766108         3.946270         1.428568
 C        -1.888385         2.803190         1.693751
 C        -1.499807         1.897216         0.486769
 C        -0.653148         0.872157         1.304060
 O         0.138218        -0.013051         0.437187
 C        -1.534354         0.359587         2.419426
 C        -1.931017         1.807132         2.928164
 C        -0.774820         2.802359         2.651909
 C         0.321800         1.889239         2.058585
 H        -3.257271         3.712866         0.583611
 H        -2.304023         1.305625        -0.058693
 H        -0.970984         2.475829        -0.317804
 H         0.419649        -0.796984         0.864250
 H        -2.472407        -0.279793         2.245570
 H        -0.884768        -0.155319         3.269856
 H        -2.610664         1.893891         3.803365
 H        -0.594334         3.580762         3.394265
 H         0.979056         2.238482         1.199933
 H         0.934072         1.335540         2.759800
