19
Iteration:  2311
 O        -2.717509         3.810083         1.407186
 C        -1.891318         2.728384         1.646596
 C        -1.526068         1.840321         0.476205
 C        -0.564504         0.962736         1.288418
 O         0.100128         0.021686         0.415631
 C        -1.547926         0.485022         2.348394
 C        -1.975326         1.897737         2.979779
 C        -0.769487         2.740951         2.702915
 C         0.393453         1.888722         2.162924
 H        -3.622061         3.487675         1.265672
 H        -2.361805         1.265347         0.187797
 H        -0.996441         2.407636        -0.346192
 H        -0.220791        -0.798864         0.660638
 H        -2.439776         0.082367         1.805662
 H        -1.095716        -0.388451         2.933695
 H        -2.740899         2.000111         3.745157
 H        -0.624534         3.716123         3.205321
 H         1.110469         2.529997         1.503478
 H         1.127013         1.272904         2.718927
