19
Iteration:  3759
 O        -2.724197         3.901491         1.351693
 C        -1.986639         2.691701         1.676521
 C        -1.448293         1.949422         0.537837
 C        -0.483489         0.906619         1.280468
 O         0.047916        -0.058670         0.462755
 C        -1.582937         0.429487         2.447995
 C        -2.064465         1.752629         2.915149
 C        -0.815220         2.690576         2.698600
 C         0.354142         1.928194         2.020175
 H        -2.335796         4.723507         1.698828
 H        -2.156238         1.291453        -0.036674
 H        -0.997162         2.488941        -0.285125
 H         1.084324        -0.065028         0.428568
 H        -2.334865        -0.194785         1.953905
 H        -1.184827        -0.108173         3.241955
 H        -2.596883         1.876410         3.852403
 H        -0.658683         3.596321         3.243895
 H         0.869028         2.591237         1.271254
 H         1.117978         1.526083         2.783455
