19
Iteration:  1799
 O        -2.655410         3.745385         1.297925
 C        -1.857190         2.745234         1.673157
 C        -1.455066         1.865519         0.471289
 C        -0.620587         0.944565         1.251422
 O         0.071997         0.067117         0.326671
 C        -1.606515         0.462029         2.352586
 C        -2.079331         1.816146         2.900474
 C        -0.789070         2.705368         2.881025
 C         0.383722         1.938134         2.225099
 H        -2.718137         4.517569         1.915781
 H        -2.352635         1.475845        -0.016653
 H        -0.855934         2.589829        -0.127029
 H         0.262983        -0.822883         0.781791
 H        -2.465613        -0.154644         1.779579
 H        -1.133237        -0.194641         3.119494
 H        -2.806626         2.174621         3.641949
 H        -0.759784         3.639187         3.461357
 H         1.218120         2.354365         1.587453
 H         0.909459         1.098337         2.897607
