19
Iteration:  1726charge 0 multiplicity 1
 O        -2.777655         3.848157         1.690316
 C        -1.818292         2.824797         1.582660
 C        -1.441626         1.930128         0.382143
 C        -0.567088         0.922801         1.278663
 O         0.147504        -0.099472         0.665867
 C        -1.650599         0.438822         2.204332
 C        -2.065287         1.809477         2.733269
 C        -0.789742         2.727273         2.655343
 C         0.368556         1.837982         2.160987
 H        -2.526517         4.517252         1.039737
 H        -2.308713         1.446560        -0.084573
 H        -0.717545         2.299118        -0.404786
 H         0.300766         0.139262        -0.211814
 H        -2.365188        -0.086995         1.606089
 H        -1.294912        -0.158471         3.016332
 H        -2.826397         2.067326         3.475028
 H        -0.786552         3.531574         3.377153
 H         1.049228         2.517003         1.696086
 H         0.801874         1.247707         2.947604
