19
Iteration:  1410charge 0 multiplicity 1
 O        -2.773990         3.760835         1.356203
 C        -1.934020         2.772426         1.736476
 C        -1.393032         2.053381         0.566355
 C        -0.533946         0.996983         1.243309
 O         0.075769        -0.049067         0.389442
 C        -1.597101         0.538578         2.322615
 C        -2.070223         1.776738         2.907696
 C        -0.736937         2.731065         2.728081
 C         0.404492         1.735735         2.259742
 H        -2.306252         4.106492         0.556198
 H        -2.182516         1.564244        -0.082510
 H        -0.860629         2.701924        -0.122732
 H        -0.659260        -0.440400        -0.253621
 H        -2.470767         0.067326         1.857876
 H        -1.065470        -0.220754         2.975865
 H        -2.834961         1.838438         3.703916
 H        -0.504209         3.493522         3.428756
 H         1.258965         2.310912         1.735960
 H         0.800556         1.330678         3.210271
