19
Iteration:   821charge 0 multiplicity 1
 O        -2.761263         4.075925         1.616360
 C        -1.893828         2.824301         1.643140
 C        -1.359347         2.035360         0.386870
 C        -0.457401         0.908729         1.289997
 O         0.200008        -0.134271         0.583808
 C        -1.697579         0.353972         2.149370
 C        -2.090567         1.716056         2.731533
 C        -0.895597         2.571175         2.835308
 C         0.338752         1.861260         2.167417
 H        -2.908507         4.327418         0.659074
 H        -2.244476         1.578571        -0.150496
 H        -0.871670         2.760776        -0.399695
 H         1.029937         0.250107         0.222967
 H        -2.460449        -0.233934         1.657823
 H        -1.186670        -0.330549         2.914635
 H        -2.962598         1.831923         3.317763
 H        -0.834568         3.269960         3.654976
 H         1.153705         2.461867         1.617112
 H         0.607910         1.167785         2.981650
