19
Iteration:  2489charge 0 multiplicity 1
 O        -2.648858         3.959703         1.582349
 C        -1.925039         2.764622         1.643495
 C        -1.527210         1.872075         0.479820
 C        -0.606343         0.912534         1.257073
 O         0.159037        -0.084537         0.560204
 C        -1.551505         0.412166         2.411317
 C        -2.083308         1.785024         2.798792
 C        -0.797846         2.779531         2.674878
 C         0.304803         1.875972         1.933708
 H        -3.327349         3.749938         0.914837
 H        -2.235765         1.536489        -0.236557
 H        -0.803563         2.514374        -0.244294
 H         1.031945        -0.106305         0.836680
 H        -2.350031        -0.197318         1.855894
 H        -1.124739        -0.250919         3.184182
 H        -2.700916         1.940311         3.664935
 H        -0.600562         3.540549         3.461216
 H         1.019829         2.434500         1.256958
 H         0.839452         1.415839         2.750736
