19
Iteration:  1101
 O        -2.679208         3.826407         1.709988
 C        -1.814451         2.823844         1.617946
 C        -1.368834         2.057619         0.410201
 C        -0.591445         0.956638         1.211527
 O         0.104541        -0.167331         0.664447
 C        -1.678920         0.478946         2.222505
 C        -2.098000         1.749224         2.696149
 C        -0.779330         2.689120         2.658568
 C         0.284712         1.906066         2.068316
 H        -3.507726         3.554281         1.234752
 H        -2.344465         1.703497        -0.109564
 H        -0.795666         2.761426        -0.287344
 H         1.103331        -0.096790         0.918982
 H        -2.350723        -0.267913         1.750936
 H        -1.062670        -0.098856         2.886915
 H        -2.888553         2.100410         3.409002
 H        -0.547888         3.523808         3.328333
 H         1.033964         2.376353         1.435731
 H         0.785090         1.358693         2.936195
