19
Iteration:  3666
 O        -2.812948         3.724522         1.499185
 C        -1.822520         2.811646         1.665987
 C        -1.443072         1.869275         0.416101
 C        -0.586187         0.995182         1.248445
 O         0.008231        -0.123188         0.565041
 C        -1.525413         0.507183         2.303999
 C        -1.977343         1.840681         2.801336
 C        -0.745825         2.760910         2.825828
 C         0.351097         1.917247         2.121332
 H        -2.403974         4.343167         0.871919
 H        -2.346194         1.560056        -0.046159
 H        -0.935824         2.302664        -0.491140
 H         0.099725         0.012777        -0.346056
 H        -2.342304        -0.098712         1.867753
 H        -1.001449        -0.214743         3.041055
 H        -2.797727         1.975595         3.551725
 H        -0.612140         3.555320         3.568012
 H         1.091452         2.557289         1.592944
 H         0.785654         1.353463         2.885930
