19
Iteration:  4605charge 0 multiplicity 1
 O        -2.773318         3.827854         1.366798
 C        -1.877915         2.803615         1.665788
 C        -1.650341         1.743146         0.558955
 C        -0.687012         0.892566         1.261853
 O         0.068699         0.024982         0.415479
 C        -1.385654         0.451251         2.519632
 C        -1.905819         1.864949         2.908942
 C        -0.738693         2.804454         2.634856
 C         0.292525         1.858528         1.966178
 H        -2.444529         4.622820         1.847381
 H        -2.633303         1.317803         0.206315
 H        -1.009777         2.152877        -0.305791
 H         0.442360        -0.513891         1.064675
 H        -2.249469        -0.245608         2.358990
 H        -0.643836         0.000871         3.224066
 H        -2.513755         2.136315         3.801269
 H        -0.437878         3.621424         3.323305
 H         0.961252         2.414923         1.234336
 H         0.903935         1.226744         2.629971
