19
Iteration:   225
 O        -2.558575         4.124764         1.580602
 C        -1.971673         2.688417         1.647024
 C        -1.474835         1.932181         0.467686
 C        -0.549538         0.930161         1.299861
 O         0.230669         0.070833         0.521510
 C        -1.606206         0.313283         2.169097
 C        -2.034109         1.663696         2.811384
 C        -0.913683         2.625882         2.699885
 C         0.258728         1.859193         2.117261
 H        -3.474772         4.272487         1.308706
 H        -2.132895         1.424251        -0.234626
 H        -0.774537         2.606669        -0.053727
 H         0.279979        -0.737244         1.098020
 H        -2.297423        -0.156690         1.455862
 H        -1.237052        -0.406476         2.927730
 H        -2.867761         1.786025         3.522504
 H        -0.834870         3.423569         3.440383
 H         0.886174         2.617151         1.614615
 H         0.880945         1.298068         2.850780
