19
Iteration:  1653charge 0 multiplicity 1
 O        -2.793241         3.872292         1.465439
 C        -1.792102         2.838565         1.623828
 C        -1.379255         1.926170         0.514556
 C        -0.558757         0.896957         1.331230
 O         0.101879         0.017914         0.442081
 C        -1.595229         0.400394         2.329904
 C        -2.072101         1.800914         2.795707
 C        -0.797469         2.680543         2.711069
 C         0.344577         1.835783         2.210606
 H        -2.432532         4.654206         1.013135
 H        -2.297358         1.597233        -0.052400
 H        -0.688664         2.346058        -0.179415
 H        -0.468842        -0.622634         0.048209
 H        -2.450065        -0.051777         1.784151
 H        -1.137693        -0.279071         3.171408
 H        -2.809089         1.832179         3.592306
 H        -0.656306         3.404039         3.461577
 H         1.043094         2.409230         1.503351
 H         0.839741         1.318527         3.045901
