19
Iteration:  1114charge 0 multiplicity 1
 O        -2.749986         3.811048         1.627523
 C        -1.805799         2.767302         1.651794
 C        -1.365594         2.099947         0.351865
 C        -0.561238         0.927283         1.205059
 O         0.026726        -0.214704         0.586036
 C        -1.558265         0.451359         2.161115
 C        -1.977427         1.889737         2.795555
 C        -0.834448         2.783248         2.781794
 C         0.267213         1.854460         2.156896
 H        -3.524878         3.495882         1.149158
 H        -2.230960         1.637512        -0.309191
 H        -0.607192         2.547918        -0.304302
 H         0.916540        -0.209298         0.785468
 H        -2.400221        -0.084014         1.735669
 H        -1.178770        -0.159206         3.000452
 H        -2.819844         1.943692         3.471175
 H        -0.706406         3.573957         3.490334
 H         0.891852         2.580185         1.647212
 H         0.932399         1.250890         2.783584
