19
Iteration:  4000charge 0 multiplicity 1
 O        -2.746282         3.882898         1.441467
 C        -1.970415         2.743535         1.683122
 C        -1.472955         1.922441         0.522709
 C        -0.583501         0.855080         1.268644
 O         0.156285         0.025641         0.427936
 C        -1.584443         0.430537         2.463075
 C        -1.899360         1.834568         2.888275
 C        -0.722701         2.809493         2.565267
 C         0.262147         1.812628         2.081328
 H        -3.573182         3.578074         1.042014
 H        -2.393193         1.573989        -0.048751
 H        -0.797138         2.521784        -0.110375
 H         0.170509        -0.840901         0.896554
 H        -2.485005        -0.115668         2.024871
 H        -1.053477        -0.197584         3.304731
 H        -2.403360         2.052829         3.789586
 H        -0.429505         3.662215         3.185445
 H         1.060123         2.315399         1.432106
 H         0.678074         1.421829         3.007110
