19
Iteration:  1173charge 0 multiplicity 1
 O        -2.581771         3.923043         1.381827
 C        -1.881961         2.784151         1.694359
 C        -1.444119         1.877869         0.413185
 C        -0.609353         0.955909         1.190507
 O         0.126826         0.003846         0.453058
 C        -1.615575         0.382743         2.349330
 C        -2.015716         1.807594         2.959178
 C        -0.833424         2.635645         2.768247
 C         0.264539         1.862772         2.167136
 H        -3.459362         3.529625         1.677612
 H        -2.328045         1.452865         0.094591
 H        -0.893345         2.316434        -0.416719
 H         0.552486         0.538996        -0.278516
 H        -2.405608        -0.365767         2.136773
 H        -1.045827        -0.028630         3.209424
 H        -2.893331         2.029003         3.627582
 H        -0.609971         3.508247         3.419276
 H         0.979621         2.644257         1.839131
 H         0.692282         1.266305         2.933607
