19
Iteration:  2277
 O        -2.852369         3.882357         1.566706
 C        -1.914621         2.756178         1.570597
 C        -1.387523         2.042645         0.395038
 C        -0.605324         0.934665         1.309095
 O         0.142691        -0.089178         0.571277
 C        -1.507065         0.419332         2.374907
 C        -1.978141         1.860431         2.827852
 C        -0.780665         2.735803         2.591185
 C         0.386154         1.836705         2.095741
 H        -3.728516         3.411821         1.653767
 H        -2.159742         1.634959        -0.269319
 H        -0.683972         2.585004        -0.285787
 H        -0.455751        -0.799384         0.376610
 H        -2.393212        -0.164610         2.116624
 H        -0.915030        -0.133318         3.184734
 H        -2.518583         2.014450         3.729734
 H        -0.635811         3.502255         3.359012
 H         0.931760         2.352691         1.256792
 H         1.039388         1.284399         2.808078
