19
Iteration:   736charge 0 multiplicity 1
 O        -2.733683         3.915087         1.541572
 C        -1.842948         2.789567         1.674308
 C        -1.294069         2.112839         0.372153
 C        -0.518851         0.996282         1.179799
 O         0.172799        -0.075414         0.678486
 C        -1.680519         0.378060         2.092521
 C        -2.188444         1.702859         2.687636
 C        -0.818778         2.668438         2.765327
 C         0.324023         1.762021         2.289401
 H        -3.354870         3.944588         2.250863
 H        -2.120115         2.039191        -0.285494
 H        -0.600723         2.833846        -0.085442
 H         0.369540         0.045830        -0.244362
 H        -2.466252        -0.104660         1.546678
 H        -1.213715        -0.250144         2.867676
 H        -2.939617         1.799649         3.447820
 H        -0.758298         3.388525         3.579246
 H         1.123834         2.298214         1.847366
 H         0.848169         1.048770         2.933645
