19
Iteration:  4387
 O        -2.926346         3.763881         1.350289
 C        -1.818369         2.830903         1.710181
 C        -1.482231         1.937283         0.532297
 C        -0.641846         0.860351         1.294924
 O        -0.152097        -0.131353         0.420873
 C        -1.404719         0.471099         2.528241
 C        -1.887674         1.924207         2.872011
 C        -0.643223         2.812095         2.605962
 C         0.445161         1.906593         1.995023
 H        -3.713009         3.476658         1.812167
 H        -2.432741         1.588231         0.077059
 H        -0.849949         2.470648        -0.261185
 H         0.508604        -0.733528         0.955275
 H        -2.172537        -0.251063         2.221607
 H        -0.731206         0.007730         3.302692
 H        -2.479285         2.220734         3.788763
 H        -0.214283         3.576499         3.239122
 H         1.117016         2.588974         1.369849
 H         1.079768         1.425330         2.788282
