19
Iteration:   780
 O        -2.560401         3.881385         1.422507
 C        -1.855024         2.691162         1.677394
 C        -1.263475         2.051995         0.486740
 C        -0.619506         0.978877         1.203951
 O         0.095531         0.046356         0.356800
 C        -1.717622         0.336839         2.302443
 C        -2.093617         1.691699         2.853634
 C        -0.931049         2.669215         2.865803
 C         0.305896         1.879864         2.340271
 H        -3.209895         3.661675         0.770602
 H        -1.923384         1.487623        -0.180309
 H        -0.561972         2.625521        -0.171142
 H         0.738948         0.485298        -0.195666
 H        -2.566542         0.000512         1.757229
 H        -1.238876        -0.365933         2.984578
 H        -3.037148         1.875040         3.305828
 H        -0.855054         3.503731         3.559628
 H         1.096345         2.502515         1.976549
 H         0.766216         1.185612         3.073955
