19
Iteration:   373
 O        -2.550805         4.070139         1.506224
 C        -1.967582         2.762956         1.653185
 C        -1.360946         1.939817         0.449050
 C        -0.525608         0.965334         1.225141
 O         0.252176        -0.068110         0.404848
 C        -1.652834         0.373135         2.226624
 C        -2.102647         1.696066         2.801126
 C        -0.946483         2.616889         2.831270
 C         0.204867         1.886137         2.339811
 H        -3.391197         3.923490         1.075452
 H        -2.137460         1.573192        -0.217143
 H        -0.790347         2.462539        -0.290708
 H         0.622956         0.473153        -0.258975
 H        -2.360539        -0.222525         1.654253
 H        -1.316710        -0.263386         3.087516
 H        -2.867298         1.644381         3.611733
 H        -0.734179         3.298412         3.691820
 H         0.998629         2.535693         1.921013
 H         0.653172         1.064281         2.945948
