19
Iteration:    51charge 0 multiplicity 1
 O        -2.851962         3.832185         1.451249
 C        -1.862178         2.869795         1.684045
 C        -1.353948         1.999145         0.566145
 C        -0.603959         0.930869         1.319626
 O         0.061434        -0.031530         0.499107
 C        -1.562752         0.358511         2.242672
 C        -1.965274         1.767333         2.778725
 C        -0.740971         2.731754         2.723524
 C         0.369752         1.918281         2.160326
 H        -3.656641         3.232942         1.602519
 H        -2.191925         1.754812        -0.135573
 H        -0.446519         2.421853         0.065702
 H        -0.439140        -0.139380        -0.381675
 H        -2.291242        -0.373268         1.757217
 H        -1.022199        -0.364357         2.865403
 H        -2.687075         1.984166         3.573538
 H        -0.488262         3.464847         3.516708
 H         1.171135         2.320324         1.437556
 H         1.007174         1.387688         2.905392
