19
Iteration:  1852charge 0 multiplicity 1
 O        -2.763689         3.910439         1.512407
 C        -1.972081         2.795044         1.642572
 C        -1.405548         2.016387         0.411019
 C        -0.527150         0.929236         1.214639
 O         0.179419        -0.195253         0.675243
 C        -1.595837         0.498365         2.224967
 C        -1.961736         1.761124         2.830358
 C        -0.781349         2.717458         2.654557
 C         0.334723         1.887734         2.153771
 H        -3.612607         3.829735         2.015381
 H        -2.325998         1.559605        -0.067586
 H        -0.974859         2.707267        -0.339619
 H        -0.328000        -0.411974        -0.138064
 H        -2.422972        -0.140220         1.774504
 H        -1.169433        -0.160674         3.031548
 H        -2.716675         1.972446         3.595819
 H        -0.524677         3.530886         3.324085
 H         1.016480         2.515018         1.517628
 H         0.999887         1.290769         2.815808
