19
Iteration:  4763
 O        -2.868831         3.851767         1.539330
 C        -1.968736         2.725159         1.636817
 C        -1.492735         1.860826         0.413910
 C        -0.553923         0.924100         1.226967
 O        -0.056771        -0.167289         0.423600
 C        -1.410145         0.499534         2.477427
 C        -1.906813         1.845354         2.900249
 C        -0.744789         2.792068         2.622195
 C         0.393822         1.962847         2.078401
 H        -2.564548         4.541532         0.912116
 H        -2.203811         1.215539        -0.155206
 H        -0.998520         2.486970        -0.353610
 H         0.444087        -0.609825         1.160848
 H        -2.179712        -0.226841         2.275203
 H        -0.724341         0.079455         3.257430
 H        -2.560124         1.959601         3.750597
 H        -0.556632         3.659350         3.294351
 H         0.962882         2.611143         1.434316
 H         1.050973         1.409276         2.850332
