19
Iteration:   816
 O        -2.747978         4.090118         1.572382
 C        -1.927085         2.835829         1.654415
 C        -1.355135         2.024017         0.432858
 C        -0.507037         0.982270         1.251499
 O         0.185385        -0.112835         0.566647
 C        -1.666699         0.335481         2.176118
 C        -2.109531         1.656737         2.716104
 C        -0.894122         2.579652         2.824492
 C         0.385298         1.818883         2.192643
 H        -2.895788         4.300551         0.662992
 H        -2.117881         1.466319        -0.089460
 H        -0.830493         2.646066        -0.221191
 H         0.944526         0.408846         0.261149
 H        -2.484036        -0.312742         1.733344
 H        -1.236987        -0.311845         2.923394
 H        -2.997426         1.889968         3.366653
 H        -0.741713         3.359055         3.590581
 H         1.172022         2.378333         1.701720
 H         0.754984         1.146445         2.986899
