19
Iteration:  3103
 O        -2.729570         3.923379         1.553124
 C        -1.941785         2.749785         1.699392
 C        -1.363817         2.056730         0.445701
 C        -0.607857         0.912566         1.222007
 O         0.239057        -0.121567         0.511589
 C        -1.661321         0.412828         2.228291
 C        -2.040413         1.837684         2.869380
 C        -0.819877         2.750858         2.658465
 C         0.315739         1.832916         2.122397
 H        -3.536238         3.580577         1.078573
 H        -2.222851         1.521516        -0.110148
 H        -0.665707         2.603913        -0.182135
 H         0.510725        -0.628160         1.305721
 H        -2.411156         0.048347         1.556855
 H        -1.312552        -0.345197         2.894740
 H        -2.560629         1.946907         3.792891
 H        -0.503232         3.464876         3.413615
 H         0.973728         2.476518         1.485875
 H         0.687433         1.267920         2.889483
