19
Iteration:  2927
 O        -2.642831         3.984627         1.421139
 C        -1.899360         2.800313         1.653708
 C        -1.409915         1.784691         0.542954
 C        -0.513471         0.876731         1.339144
 O         0.107914         0.044049         0.303273
 C        -1.620242         0.392582         2.359581
 C        -2.092459         1.859553         2.841490
 C        -0.800537         2.672275         2.848320
 C         0.292629         1.896206         2.163082
 H        -3.501156         3.711273         0.992673
 H        -2.148486         1.180460        -0.015274
 H        -0.926465         2.213863        -0.262518
 H         0.739612        -0.739531         0.573657
 H        -2.309519        -0.123181         1.661002
 H        -1.250732        -0.345656         3.236318
 H        -2.958328         2.058238         3.524191
 H        -0.877901         3.452334         3.575532
 H         0.889460         2.626387         1.418220
 H         1.102541         1.531391         2.833823
