19
Iteration:  1303
 O        -2.580172         3.848206         1.393193
 C        -1.881949         2.686741         1.705914
 C        -1.435074         1.956490         0.510555
 C        -0.562633         0.892948         1.272374
 O         0.063487         0.000189         0.391592
 C        -1.649187         0.455749         2.393987
 C        -2.081469         1.776833         2.799589
 C        -0.843500         2.712275         2.751692
 C         0.310504         1.865727         2.088475
 H        -2.976407         4.183632         2.225625
 H        -2.398996         1.639402        -0.120333
 H        -0.941540         2.772168        -0.094643
 H         1.056901         0.111021         0.636547
 H        -2.355204        -0.246280         1.988569
 H        -1.069165         0.025138         3.248237
 H        -2.853248         1.839383         3.605392
 H        -0.697397         3.427773         3.536938
 H         0.929104         2.607628         1.520025
 H         0.966614         1.299832         2.722328
