19
Iteration:  1439charge 0 multiplicity 1
 O        -2.731830         3.875816         1.505350
 C        -1.819373         2.830514         1.652621
 C        -1.423442         1.918386         0.458160
 C        -0.628543         0.908994         1.292594
 O         0.180400         0.034211         0.509566
 C        -1.695340         0.383210         2.337234
 C        -2.072557         1.736223         2.778133
 C        -0.768278         2.704614         2.712857
 C         0.330227         1.876689         2.124795
 H        -2.200373         4.686206         1.297046
 H        -2.219097         1.537123        -0.126733
 H        -0.779032         2.292265        -0.386121
 H        -0.237197        -0.842439         0.375412
 H        -2.573586        -0.118583         1.850876
 H        -1.176332        -0.221872         3.063126
 H        -2.658943         1.840291         3.725457
 H        -0.597723         3.466755         3.497566
 H         0.859265         2.422375         1.414663
 H         1.008712         1.477893         2.884772
