19
Iteration:  3264
 O        -2.680764         3.922771         1.429719
 C        -2.023854         2.668088         1.654709
 C        -1.404125         2.020955         0.438692
 C        -0.525207         1.020361         1.177090
 O         0.036456        -0.149327         0.556591
 C        -1.533193         0.479645         2.308475
 C        -1.935553         1.738667         2.915691
 C        -0.875231         2.728458         2.716842
 C         0.340769         1.847847         2.109416
 H        -3.573892         3.753918         1.793502
 H        -2.236323         1.664873        -0.161319
 H        -0.776117         2.629772        -0.141950
 H         1.051788         0.031669         0.408332
 H        -2.470493         0.047202         1.817750
 H        -0.851338        -0.236965         2.870404
 H        -2.667760         1.815309         3.719818
 H        -0.733028         3.522984         3.441557
 H         1.106860         2.410376         1.668667
 H         0.609486         1.336383         3.056171
