19
Iteration:  4106
 O        -2.819153         3.699435         1.402874
 C        -1.829655         2.779899         1.634049
 C        -1.537756         1.929200         0.495744
 C        -0.566651         0.935947         1.271478
 O        -0.004238        -0.066140         0.497553
 C        -1.642191         0.529968         2.414790
 C        -1.886574         1.922603         2.886130
 C        -0.601284         2.784488         2.676987
 C         0.344920         1.840489         2.016376
 H        -3.472926         3.668376         2.097118
 H        -2.353855         1.346680         0.086944
 H        -1.064591         2.511873        -0.288173
 H         0.869198        -0.336164         0.855231
 H        -2.474656         0.107830         1.894247
 H        -1.175996        -0.201986         3.079149
 H        -2.590115         2.086505         3.662520
 H        -0.239274         3.700009         3.166198
 H         1.115178         2.448364         1.508205
 H         0.862332         1.264143         2.885341
