19
Iteration:  2789
 O        -2.632750         3.931487         1.462150
 C        -1.896984         2.801188         1.659792
 C        -1.482540         1.947170         0.549617
 C        -0.523478         0.885531         1.306440
 O         0.142413         0.038875         0.432814
 C        -1.608108         0.318375         2.402377
 C        -2.094790         1.835160         2.801660
 C        -0.843016         2.703934         2.675234
 C         0.339913         1.876058         2.105490
 H        -3.342560         3.742693         0.835934
 H        -2.347174         1.417753         0.013965
 H        -0.903706         2.387002        -0.415779
 H         0.243762        -0.732382         0.973831
 H        -2.260718        -0.427514         1.817829
 H        -1.055270        -0.200755         3.173304
 H        -2.812506         1.994377         3.641235
 H        -0.595457         3.448314         3.412160
 H         0.942917         2.357420         1.430918
 H         0.964359         1.490667         2.898231
