19
Iteration:  4376
 O        -2.845153         3.754814         1.361266
 C        -1.914872         2.826121         1.630572
 C        -1.463617         1.980289         0.524549
 C        -0.538714         0.948951         1.298230
 O        -0.223522        -0.131958         0.434393
 C        -1.369780         0.524472         2.565940
 C        -1.834981         1.857857         2.901361
 C        -0.678558         2.786161         2.672646
 C         0.394561         1.881084         1.951458
 H        -3.684060         3.240923         1.500097
 H        -2.219074         1.452073        -0.086549
 H        -0.751593         2.521093        -0.201453
 H         0.290740        -0.763603         0.930603
 H        -2.256773        -0.117324         2.513315
 H        -0.692520         0.096148         3.364570
 H        -2.621319         1.857408         3.722055
 H        -0.514698         3.620312         3.356047
 H         0.929156         2.436433         1.098577
 H         1.156449         1.436664         2.634633
