19
Iteration:  2514charge 0 multiplicity 1
 O        -2.690855         3.917205         1.541117
 C        -1.857987         2.764832         1.565894
 C        -1.481267         1.917571         0.427484
 C        -0.600447         0.951931         1.240711
 O         0.108987        -0.091990         0.627050
 C        -1.596398         0.435127         2.350972
 C        -1.942075         1.814279         2.848560
 C        -0.819060         2.729298         2.694320
 C         0.327966         1.843801         2.079542
 H        -3.539236         3.603853         1.253844
 H        -2.298609         1.329613        -0.009017
 H        -1.137311         2.551771        -0.395428
 H         0.633607         0.277263        -0.098684
 H        -2.429830        -0.250296         1.895758
 H        -1.058550        -0.268965         3.079509
 H        -2.822919         2.044536         3.502766
 H        -0.732095         3.568081         3.388643
 H         0.948819         2.527437         1.460139
 H         1.057588         1.332674         2.860394
