19
Iteration:  4586
 O        -2.744394         3.931304         1.428002
 C        -2.012199         2.702114         1.713852
 C        -1.589230         1.889564         0.498015
 C        -0.488682         0.858889         1.313900
 O         0.010194        -0.124140         0.419705
 C        -1.434633         0.456735         2.587509
 C        -2.034217         1.789359         2.888640
 C        -0.758421         2.737597         2.571929
 C         0.386613         2.005864         1.894357
 H        -2.257501         4.686643         1.863270
 H        -2.410939         1.182426         0.241918
 H        -1.189963         2.446086        -0.357858
 H         0.556945        -0.800483         0.861068
 H        -1.977795        -0.408443         2.326868
 H        -0.798705         0.185013         3.465992
 H        -2.750845         2.051831         3.724110
 H        -0.604453         3.667031         3.122501
 H         0.798463         2.549422         1.050347
 H         1.215520         1.642157         2.619736
