19
Iteration:  3536
 O        -2.807684         3.714390         1.444977
 C        -1.899071         2.686540         1.687600
 C        -1.355144         1.954883         0.504147
 C        -0.575923         0.929842         1.298381
 O         0.022993         0.052859         0.434544
 C        -1.580690         0.488282         2.367700
 C        -2.029912         1.875908         2.872977
 C        -0.771930         2.644634         2.678819
 C         0.337293         1.881479         2.064868
 H        -2.230946         4.517350         1.282288
 H        -2.096112         1.415689        -0.027435
 H        -0.622833         2.654712         0.006602
 H         0.272566        -0.780798         0.841776
 H        -2.280757        -0.135395         1.904703
 H        -1.019067         0.025577         3.177509
 H        -2.691957         2.124501         3.654272
 H        -0.691567         3.584401         3.198112
 H         0.983653         2.659918         1.467237
 H         1.099141         1.513769         2.832937
