19
Iteration:   759charge 0 multiplicity 1
 O        -2.689386         3.956356         1.417320
 C        -1.850743         2.813768         1.673001
 C        -1.272298         2.026382         0.516108
 C        -0.504624         0.915771         1.346039
 O         0.117461        -0.042518         0.426354
 C        -1.652672         0.393089         2.133452
 C        -2.124036         1.741741         2.740742
 C        -0.902669         2.603416         2.862373
 C         0.307580         1.803697         2.307405
 H        -3.634563         3.655009         1.570454
 H        -2.008264         1.630410        -0.186296
 H        -0.624084         2.690294        -0.039412
 H         0.338372         0.572510        -0.292259
 H        -2.379902        -0.066979         1.458750
 H        -1.334643        -0.185547         2.986326
 H        -2.761184         1.866625         3.586248
 H        -0.692025         3.334734         3.632050
 H         1.054718         2.328942         1.775924
 H         0.864996         1.377589         3.168466
