19
Iteration:  1363
 O        -2.760822         3.805045         1.669776
 C        -1.852847         2.738388         1.609424
 C        -1.339137         1.955244         0.378430
 C        -0.557070         0.954218         1.283574
 O         0.112308        -0.107510         0.633767
 C        -1.685213         0.461668         2.223973
 C        -2.074393         1.811524         2.790081
 C        -0.785601         2.718219         2.702651
 C         0.329895         1.890251         2.116148
 H        -2.408139         4.483317         1.077687
 H        -2.127063         1.551097        -0.177828
 H        -0.742255         2.622027        -0.292463
 H         0.265403         0.109991        -0.272621
 H        -2.459139        -0.116855         1.624442
 H        -1.302690        -0.206304         3.001722
 H        -2.824941         2.033494         3.560589
 H        -0.721689         3.692740         3.247568
 H         0.977716         2.496852         1.506148
 H         0.963729         1.210364         2.743556
