19
Iteration:  1957
 O        -2.720873         3.871942         1.429311
 C        -1.924162         2.798151         1.713337
 C        -1.359399         1.881150         0.542452
 C        -0.531454         0.897544         1.335956
 O         0.107195         0.004911         0.418999
 C        -1.658867         0.407049         2.322891
 C        -2.018718         1.812791         2.828489
 C        -0.818556         2.727232         2.722204
 C         0.398415         1.922207         2.077430
 H        -3.668729         3.624303         1.522820
 H        -2.100744         1.377324        -0.031517
 H        -0.732645         2.428478        -0.134784
 H        -0.155412        -0.846337         0.593851
 H        -2.456185        -0.096684         1.835934
 H        -1.126093        -0.220311         3.045840
 H        -2.745155         1.905539         3.658168
 H        -0.501042         3.573990         3.372098
 H         0.824737         2.537750         1.286850
 H         1.114091         1.739949         2.870667
