19
Iteration:  3908
 O        -2.715547         3.803508         1.419281
 C        -1.895325         2.724994         1.696015
 C        -1.478321         1.836026         0.443795
 C        -0.591724         0.929743         1.305487
 O         0.115021         0.069105         0.419611
 C        -1.609071         0.414961         2.376042
 C        -2.014162         1.792886         2.920731
 C        -0.776190         2.825418         2.615084
 C         0.353988         1.891008         2.097827
 H        -2.390955         4.576713         1.944021
 H        -2.365703         1.266718         0.209598
 H        -0.951224         2.392388        -0.364612
 H         0.287358        -0.832543         0.846667
 H        -2.536583        -0.081491         2.040277
 H        -1.130357        -0.276174         3.188302
 H        -2.772882         1.939475         3.726649
 H        -0.687626         3.680809         3.267779
 H         1.044734         2.420080         1.345926
 H         0.915813         1.375778         3.010796
