19
Iteration:  1250
 O        -2.795628         3.850070         1.516979
 C        -1.810020         2.791751         1.694623
 C        -1.376268         2.052859         0.495229
 C        -0.575993         0.969313         1.255357
 O         0.104154        -0.055818         0.473855
 C        -1.595003         0.409363         2.277534
 C        -2.083199         1.828331         2.794150
 C        -0.724876         2.740111         2.671627
 C         0.346716         1.807255         2.163419
 H        -3.516702         3.333399         1.106504
 H        -2.219534         1.618146        -0.091435
 H        -0.863060         2.734194        -0.220096
 H        -0.195090        -0.881951         1.017551
 H        -2.398775        -0.184030         1.784196
 H        -0.941128        -0.230662         2.893812
 H        -2.759682         2.085404         3.651537
 H        -0.470812         3.551250         3.326931
 H         1.156174         2.308901         1.626641
 H         0.775026         1.179022         2.935781
