19
Iteration:  2216
 O        -2.705526         4.010497         1.444390
 C        -1.954198         2.763319         1.669827
 C        -1.519483         1.836885         0.533950
 C        -0.582714         0.927509         1.275365
 O         0.213656         0.013173         0.533121
 C        -1.531773         0.404789         2.368458
 C        -2.059157         1.759962         2.857845
 C        -0.745460         2.768555         2.702572
 C         0.319416         1.842066         2.035883
 H        -3.514263         3.625292         0.971685
 H        -2.424754         1.138498         0.370834
 H        -1.080704         2.296463        -0.382590
 H        -0.095513        -0.138309        -0.393496
 H        -2.338199        -0.321625         2.037347
 H        -1.078858        -0.158312         3.161282
 H        -2.619892         2.011761         3.759029
 H        -0.537598         3.398597         3.589878
 H         1.081517         2.262411         1.365471
 H         1.041625         1.283210         2.667675
