19
Iteration:  3591charge 0 multiplicity 1
 O        -2.687606         3.879487         1.543630
 C        -1.897956         2.746597         1.657534
 C        -1.534307         1.849845         0.425299
 C        -0.563086         0.973554         1.238301
 O         0.093709        -0.078519         0.561318
 C        -1.591236         0.509791         2.362891
 C        -2.102917         1.817697         2.755299
 C        -0.683127         2.779873         2.654148
 C         0.385335         1.836231         2.081131
 H        -3.624416         3.603472         1.720084
 H        -2.358176         1.288791        -0.059873
 H        -1.151988         2.489735        -0.449326
 H         1.115218         0.089080         0.574508
 H        -2.246560        -0.115686         1.807295
 H        -1.165532        -0.014664         3.249941
 H        -2.797922         1.897447         3.584332
 H        -0.730834         3.534760         3.408480
 H         1.216324         2.524021         1.609620
 H         0.771067         1.127681         2.888154
