19
Iteration:  3728charge 0 multiplicity 1
 O        -2.749385         3.839182         1.462544
 C        -1.831770         2.768565         1.614091
 C        -1.522638         1.937421         0.389539
 C        -0.585095         0.936696         1.206458
 O         0.032272        -0.128797         0.607188
 C        -1.515204         0.454107         2.342250
 C        -1.931112         1.753412         2.801449
 C        -0.802668         2.768635         2.789743
 C         0.287048         1.941133         2.063967
 H        -2.556905         4.634393         1.986767
 H        -2.513943         1.383504         0.252913
 H        -1.068205         2.274020        -0.561712
 H         0.943495        -0.056781         0.638908
 H        -2.366547        -0.126299         1.898609
 H        -0.995695        -0.191586         3.031696
 H        -2.746949         1.729214         3.554278
 H        -0.727438         3.646402         3.414110
 H         0.910086         2.560223         1.424176
 H         1.082099         1.456713         2.860506
