19
Iteration:   462
 O        -2.745176         3.882945         1.678477
 C        -1.841539         2.748453         1.586725
 C        -1.203542         2.115464         0.342778
 C        -0.573643         1.030199         1.212671
 O         0.079527        -0.079359         0.696399
 C        -1.682167         0.456366         2.054190
 C        -2.096372         1.724311         2.665783
 C        -0.839839         2.595078         2.706740
 C         0.327077         1.815457         2.326122
 H        -3.623107         3.581608         1.894767
 H        -2.041541         1.708910        -0.132466
 H        -0.499459         2.530074        -0.351438
 H         0.814610         0.290453         0.210430
 H        -2.468529        -0.063347         1.603190
 H        -1.203963        -0.290037         2.750898
 H        -2.983899         1.908145         3.250648
 H        -0.784552         3.411313         3.431134
 H         1.043541         2.489394         1.816127
 H         0.992296         1.153288         2.906904
