19
Iteration:  3772charge 0 multiplicity 1
 O        -2.771391         3.892197         1.387793
 C        -2.015501         2.744041         1.667372
 C        -1.394366         1.870554         0.442192
 C        -0.644117         0.887593         1.358608
 O         0.081376        -0.026805         0.410941
 C        -1.516037         0.396027         2.449135
 C        -1.926784         1.814154         2.947636
 C        -0.846610         2.756061         2.614823
 C         0.308292         1.867500         2.078627
 H        -2.166639         4.598007         1.676622
 H        -2.109246         1.423377        -0.302054
 H        -0.642136         2.523225         0.034325
 H         0.947443         0.213270         0.590952
 H        -2.441889        -0.083720         2.095097
 H        -1.054729        -0.240189         3.165402
 H        -2.718207         1.900960         3.756458
 H        -0.686833         3.575182         3.326367
 H         1.007948         2.307109         1.363895
 H         0.987132         1.301768         2.913498
