19
Iteration:  3802
 O        -2.842227         3.753291         1.580606
 C        -1.855770         2.770079         1.590844
 C        -1.485054         1.934167         0.437346
 C        -0.585012         0.994553         1.309482
 O         0.095893        -0.118451         0.491081
 C        -1.570209         0.522839         2.366926
 C        -2.018254         1.882341         2.765549
 C        -0.746130         2.779197         2.664140
 C         0.401718         1.774009         2.128391
 H        -2.690162         4.557437         1.010178
 H        -2.428733         1.456924         0.063118
 H        -1.161610         2.385730        -0.502004
 H         1.079182        -0.025484         0.730135
 H        -2.381049        -0.072305         1.925144
 H        -1.159796        -0.049554         3.199645
 H        -2.867442         1.981199         3.464943
 H        -0.569462         3.538378         3.402285
 H         1.224989         2.314713         1.612765
 H         0.868769         1.263475         2.905451
