19
Iteration:  1064
 O        -2.556573         4.035367         1.490344
 C        -1.951203         2.762237         1.701952
 C        -1.427033         1.895271         0.504050
 C        -0.553622         0.919892         1.240792
 O         0.207251        -0.112772         0.432615
 C        -1.625641         0.384040         2.264880
 C        -2.075898         1.764085         2.839140
 C        -0.900364         2.678655         2.681272
 C         0.232953         1.869483         2.199630
 H        -3.497085         3.891688         1.645691
 H        -2.188606         1.402413        -0.013801
 H        -0.917345         2.559738        -0.198733
 H         1.019154         0.461456         0.223240
 H        -2.545716         0.020141         1.795075
 H        -1.216976        -0.303472         3.036087
 H        -2.744141         1.763251         3.650094
 H        -0.717259         3.529299         3.323928
 H         0.931343         2.489883         1.557985
 H         0.757459         1.538574         3.138635
