19
Iteration:  2038charge 0 multiplicity 1
 O        -2.717665         3.955478         1.447600
 C        -1.969666         2.696954         1.716144
 C        -1.376127         1.859954         0.538352
 C        -0.564202         0.944778         1.315507
 O         0.163037        -0.077744         0.452854
 C        -1.602433         0.420656         2.390540
 C        -1.962932         1.767008         2.902727
 C        -0.825634         2.772137         2.692228
 C         0.319147         1.910674         2.071522
 H        -3.552433         3.847119         0.890404
 H        -2.177139         1.321862        -0.217860
 H        -0.685831         2.547114        -0.129466
 H        -0.204898         0.078810        -0.397151
 H        -2.337207        -0.112513         1.759229
 H        -1.220028        -0.354595         3.073248
 H        -2.763082         1.960762         3.647869
 H        -0.750745         3.610915         3.401329
 H         0.975633         2.447845         1.333306
 H         1.054693         1.544030         2.827261
