19
Iteration:  4161charge 0 multiplicity 1
 O        -2.724329         3.930412         1.587969
 C        -1.897095         2.740800         1.614398
 C        -1.530999         1.866780         0.424215
 C        -0.638569         0.911512         1.224324
 O         0.039258        -0.087646         0.529525
 C        -1.385805         0.509678         2.537732
 C        -2.026404         1.803807         2.847891
 C        -0.784257         2.748399         2.638733
 C         0.328097         1.903288         1.939633
 H        -2.763554         4.167353         0.636093
 H        -2.243362         1.299923        -0.174880
 H        -0.921252         2.389498        -0.288574
 H        -0.158301        -0.889292         0.919147
 H        -1.996968        -0.361444         2.355367
 H        -0.520906         0.162946         3.140146
 H        -2.663451         1.856463         3.771633
 H        -0.810909         3.596939         3.375606
 H         0.834031         2.603375         1.247678
 H         1.096356         1.284833         2.528333
