19
Iteration:   855charge 0 multiplicity 1
 O        -2.764380         3.851283         1.726088
 C        -1.876416         2.706538         1.619508
 C        -1.237740         2.072175         0.394153
 C        -0.549216         0.952675         1.255280
 O         0.114379        -0.065189         0.702632
 C        -1.763723         0.416226         2.088548
 C        -2.128009         1.750753         2.733356
 C        -0.798698         2.666945         2.708685
 C         0.337217         1.880927         2.121507
 H        -2.676519         4.366360         0.858070
 H        -2.011539         1.657608        -0.311291
 H        -0.526710         2.871107        -0.100480
 H         1.074985         0.045759         0.361071
 H        -2.477654        -0.074481         1.470083
 H        -1.241972        -0.333802         2.766112
 H        -3.060390         1.904500         3.266404
 H        -0.849287         3.557566         3.345043
 H         1.284335         2.311898         1.699236
 H         0.751542         1.156766         2.861129
