19
Iteration:  2417
 O        -2.869027         3.873681         1.421713
 C        -1.905429         2.819015         1.699699
 C        -1.407127         1.907134         0.408742
 C        -0.561080         0.910809         1.282246
 O         0.143539        -0.136247         0.522659
 C        -1.603923         0.469839         2.388852
 C        -1.968664         1.869332         2.915626
 C        -0.710779         2.759661         2.641778
 C         0.374767         1.867181         2.118503
 H        -3.561336         3.297391         1.729209
 H        -2.166341         1.791150        -0.448140
 H        -0.724584         2.529451        -0.069682
 H        -0.101525        -0.151489        -0.359524
 H        -2.364042        -0.109188         1.935984
 H        -1.202220        -0.057438         3.249955
 H        -2.418502         2.105292         3.900625
 H        -0.681727         3.502580         3.461347
 H         0.993741         2.330926         1.411879
 H         0.899050         1.129348         2.723895
