19
Iteration:   278
 O        -2.657036         3.931854         1.479251
 C        -1.858660         2.742951         1.622514
 C        -1.265684         2.041549         0.462706
 C        -0.605093         0.950400         1.321558
 O         0.034031         0.146932         0.456860
 C        -1.636701         0.360711         2.275015
 C        -2.136739         1.671358         2.816919
 C        -0.855542         2.634507         2.752417
 C         0.339424         1.749342         2.206050
 H        -3.384947         3.762873         0.877062
 H        -1.994270         1.652760        -0.206166
 H        -0.605969         2.552884        -0.274028
 H         1.019779         0.174297         0.550929
 H        -2.359312        -0.251970         1.778273
 H        -1.146023        -0.310640         3.017611
 H        -2.803154         1.725376         3.719949
 H        -0.746333         3.487714         3.470804
 H         1.051449         2.338593         1.688168
 H         0.835766         1.205622         3.023416
