19
Iteration:  2416
 O        -2.867031         3.874449         1.425804
 C        -1.912580         2.813792         1.698448
 C        -1.406462         1.910673         0.411351
 C        -0.563621         0.913471         1.276901
 O         0.146577        -0.141529         0.529390
 C        -1.607113         0.463583         2.389035
 C        -1.959039         1.867965         2.919203
 C        -0.714819         2.767161         2.634753
 C         0.371593         1.869444         2.113161
 H        -3.554097         3.308696         1.729856
 H        -2.141118         1.802639        -0.420097
 H        -0.711619         2.491406        -0.045937
 H        -0.073824        -0.108099        -0.392986
 H        -2.412164        -0.094591         1.909082
 H        -1.198324        -0.066654         3.246626
 H        -2.416912         2.126285         3.875418
 H        -0.683430         3.493373         3.468254
 H         1.000553         2.340930         1.389270
 H         0.900358         1.108545         2.754331
