19
Iteration:  1280
 O        -2.740326         3.923009         1.321782
 C        -1.884035         2.723712         1.692520
 C        -1.333934         1.866757         0.507262
 C        -0.533727         0.926337         1.327407
 O        -0.023779         0.044689         0.267306
 C        -1.613538         0.408650         2.348476
 C        -2.009110         1.829904         2.942070
 C        -0.770177         2.682559         2.766866
 C         0.360397         1.865516         2.243784
 H        -3.539905         3.799772         1.895667
 H        -2.128730         1.301115        -0.188959
 H        -0.728907         2.531731        -0.138951
 H         0.692852        -0.442724         0.710317
 H        -2.466491         0.046265         1.827258
 H        -1.112576        -0.404615         2.937602
 H        -2.857014         2.066992         3.633091
 H        -0.540650         3.602344         3.342455
 H         1.127356         2.542224         1.750594
 H         0.862047         1.239165         2.962027
