19
Iteration:  2779charge 0 multiplicity 1
 O        -2.604553         3.953844         1.519251
 C        -1.910366         2.723851         1.625495
 C        -1.447722         1.837025         0.416582
 C        -0.556946         0.934777         1.353730
 O         0.086092         0.028113         0.456811
 C        -1.592828         0.353490         2.359500
 C        -2.058585         1.777770         2.804374
 C        -0.798491         2.695450         2.709728
 C         0.325935         1.995822         2.121416
 H        -3.270634         3.796468         0.854195
 H        -2.324871         1.227988         0.030317
 H        -0.821564         2.399864        -0.379813
 H         0.312310        -0.866402         0.821860
 H        -2.462721        -0.123538         1.808190
 H        -1.270618        -0.231757         3.234945
 H        -2.806602         2.063810         3.581094
 H        -0.740082         3.409808         3.505144
 H         0.822604         2.682222         1.526353
 H         1.008128         1.521702         2.820245
