19
Iteration:   563
 O        -2.758006         3.960823         1.531090
 C        -1.900791         2.817289         1.601079
 C        -1.270000         2.057798         0.496517
 C        -0.520000         0.943805         1.303423
 O         0.145491        -0.051138         0.512649
 C        -1.694909         0.359329         2.144510
 C        -2.103088         1.698855         2.690188
 C        -0.942008         2.603875         2.782596
 C         0.348527         1.822748         2.250281
 H        -2.315467         4.511780         2.233073
 H        -1.886605         1.607112        -0.275944
 H        -0.471584         2.648987        -0.026369
 H         0.707707         0.624573        -0.007529
 H        -2.406823        -0.185008         1.473109
 H        -1.295928        -0.339981         2.903871
 H        -3.001820         1.567184         3.318673
 H        -0.707762         3.079860         3.733751
 H         1.079288         2.439193         1.702464
 H         0.753451         1.246255         3.129681
