19
Iteration:  3503
 O        -2.798447         3.941528         1.527479
 C        -1.850037         2.796424         1.673451
 C        -1.505665         1.882239         0.549643
 C        -0.586638         0.878339         1.246096
 O         0.154660        -0.045613         0.400751
 C        -1.539563         0.407595         2.268885
 C        -1.933929         1.813340         2.784949
 C        -0.806044         2.796687         2.648166
 C         0.315287         1.886791         2.242154
 H        -3.255604         3.666253         0.709871
 H        -2.391119         1.407846         0.158426
 H        -1.187792         2.372660        -0.419782
 H         0.283258        -0.982188         0.850110
 H        -2.207137        -0.315729         1.969810
 H        -0.962876        -0.119655         3.009405
 H        -2.521400         2.073985         3.633224
 H        -0.654709         3.577366         3.396147
 H         1.193929         2.517982         1.772035
 H         0.560874         1.340668         3.214223
