19
Iteration:  4482charge 0 multiplicity 1
 O        -2.780894         3.796298         1.477337
 C        -1.925855         2.658112         1.707221
 C        -1.486105         1.845885         0.496137
 C        -0.546015         0.948451         1.249309
 O        -0.160656        -0.085222         0.438375
 C        -1.439583         0.529303         2.501071
 C        -1.920358         1.820298         2.895041
 C        -0.704742         2.807968         2.597351
 C         0.405300         2.009887         2.033210
 H        -2.540334         4.023393         0.546900
 H        -2.307302         1.249941         0.071581
 H        -1.071935         2.398819        -0.400667
 H         0.452616        -0.521835         0.976885
 H        -2.347969        -0.078220         2.168686
 H        -0.877668         0.033733         3.278949
 H        -2.633884         1.802816         3.762462
 H        -0.688090         3.633622         3.289840
 H         1.091161         2.524029         1.281894
 H         1.060838         1.518345         2.729207
