19
Iteration:    19
 O        -2.791643         3.704841         1.429034
 C        -1.978321         2.662581         1.628423
 C        -1.382185         2.009770         0.476017
 C        -0.547459         1.008479         1.185819
 O        -0.039979        -0.078446         0.322568
 C        -1.534109         0.517225         2.330888
 C        -2.029170         1.859449         2.900537
 C        -0.731351         2.719616         2.807095
 C         0.441321         1.864470         2.295520
 H        -3.380809         3.847437         2.157728
 H        -2.037064         1.648170        -0.337418
 H        -0.729177         2.752288        -0.009031
 H         0.877628         0.089484         0.197898
 H        -2.394138        -0.081257         1.874837
 H        -0.949281         0.003368         3.087127
 H        -2.827010         2.061687         3.627972
 H        -0.528807         3.727081         3.221304
 H         1.242458         2.474413         1.758599
 H         0.833605         1.147750         3.004355
