19
Iteration:    37
 O        -2.902917         3.788719         1.399454
 C        -1.846492         2.816546         1.669511
 C        -1.264598         2.069932         0.482243
 C        -0.490584         0.958600         1.283717
 O        -0.056189        -0.056389         0.433456
 C        -1.521783         0.399409         2.337052
 C        -1.923523         1.765556         2.869992
 C        -0.781988         2.750265         2.713100
 C         0.357382         1.808250         2.189660
 H        -3.688568         3.565694         1.875009
 H        -2.041926         1.511757        -0.085027
 H        -0.720516         2.738092        -0.241800
 H         0.040168         0.370844        -0.402764
 H        -2.351059        -0.047920         1.833972
 H        -1.046083        -0.219775         3.155106
 H        -2.657158         1.869844         3.697896
 H        -0.699609         3.446773         3.566434
 H         1.130464         2.393896         1.719894
 H         0.713354         1.229916         3.115670
