19
Iteration:  3970
 O        -2.827878         3.811772         1.507806
 C        -1.858619         2.713072         1.607367
 C        -1.409454         1.871397         0.380286
 C        -0.502901         0.942389         1.287698
 O         0.027929        -0.064414         0.499175
 C        -1.603218         0.502725         2.356538
 C        -1.939656         1.876879         2.781636
 C        -0.708685         2.798364         2.724271
 C         0.388074         1.911386         2.119076
 H        -3.421459         3.738453         2.290612
 H        -2.280014         1.306703         0.007534
 H        -0.923880         2.260764        -0.537682
 H        -0.290576        -0.907871         0.984260
 H        -2.448162         0.031730         1.819478
 H        -1.086061        -0.086134         3.101720
 H        -2.701145         1.898479         3.570531
 H        -0.592524         3.726403         3.276879
 H         0.884931         2.595453         1.450992
 H         0.952422         1.488728         2.943603
