19
Iteration:   761
 O        -2.687854         3.955446         1.412540
 C        -1.845228         2.816534         1.669750
 C        -1.271772         2.009623         0.493511
 C        -0.493232         0.905001         1.336899
 O         0.111642        -0.031048         0.411049
 C        -1.652997         0.393568         2.141546
 C        -2.130522         1.743678         2.761409
 C        -0.899030         2.602067         2.869559
 C         0.303700         1.808779         2.335276
 H        -3.600669         3.660093         1.497353
 H        -2.053920         1.717052        -0.204105
 H        -0.617198         2.665429        -0.009627
 H         0.342129         0.571755        -0.250496
 H        -2.431785        -0.111288         1.485038
 H        -1.350604        -0.234583         2.971019
 H        -2.774965         1.850909         3.638965
 H        -0.717527         3.385482         3.611671
 H         1.045500         2.379996         1.749520
 H         0.926824         1.372905         3.146184
