19
Iteration:  2404charge 0 multiplicity 1
 O        -2.816332         3.836777         1.491581
 C        -1.938534         2.750397         1.644675
 C        -1.367614         1.992936         0.495073
 C        -0.608825         0.888182         1.255473
 O         0.136693        -0.150903         0.597618
 C        -1.629996         0.436603         2.371337
 C        -1.884935         1.853803         2.880358
 C        -0.753193         2.812898         2.608207
 C         0.327607         1.866257         2.019818
 H        -3.782886         3.717693         1.635433
 H        -2.130182         1.493717        -0.085360
 H        -0.707050         2.543629        -0.080476
 H         0.302236         0.233262        -0.347033
 H        -2.599876         0.049440         1.969144
 H        -1.188556        -0.351861         2.982882
 H        -2.614711         2.080430         3.631444
 H        -0.466136         3.623018         3.291734
 H         1.137688         2.336221         1.442237
 H         0.867090         1.483502         2.947546
