19
Iteration:  3827charge 0 multiplicity 1
 O        -2.907319         3.858901         1.594872
 C        -1.877192         2.809789         1.697318
 C        -1.316386         1.926926         0.399895
 C        -0.550657         0.976187         1.291524
 O         0.026588        -0.211891         0.593192
 C        -1.636850         0.418450         2.244426
 C        -1.952212         1.823116         2.810587
 C        -0.712364         2.716076         2.718651
 C         0.352494         1.969152         2.018121
 H        -3.012563         4.165735         0.651899
 H        -2.097043         1.432280        -0.169721
 H        -0.886178         2.504009        -0.385823
 H         0.943202        -0.316712         0.856942
 H        -2.500868         0.010528         1.710831
 H        -1.342550        -0.195406         3.001499
 H        -2.568851         1.949985         3.738172
 H        -0.456194         3.614496         3.325639
 H         0.910949         2.649300         1.406358
 H         1.085475         1.551534         2.807540
