19
Iteration:  4382
 O        -2.887470         3.752085         1.344537
 C        -1.867806         2.861090         1.684026
 C        -1.487599         1.976333         0.525925
 C        -0.587848         0.881189         1.312070
 O        -0.188193        -0.132304         0.423997
 C        -1.369810         0.495896         2.560573
 C        -1.869057         1.889808         2.863376
 C        -0.666631         2.793499         2.635083
 C         0.431143         1.881302         1.974404
 H        -3.702769         3.316562         1.698929
 H        -2.330357         1.532225        -0.030326
 H        -0.821330         2.450043        -0.169621
 H         0.362325        -0.676481         0.968290
 H        -2.280717        -0.129862         2.382248
 H        -0.679993         0.045932         3.257356
 H        -2.518310         1.976351         3.718452
 H        -0.280493         3.592154         3.278779
 H         1.004007         2.576795         1.334565
 H         1.133648         1.452902         2.696244
