19
Iteration:  1019
 O        -2.746363         3.946012         1.415392
 C        -1.865017         2.847229         1.664070
 C        -1.249853         2.005282         0.516894
 C        -0.497743         0.940804         1.292329
 O         0.059703        -0.104350         0.435746
 C        -1.632016         0.395167         2.321818
 C        -2.057789         1.739505         2.846681
 C        -0.879942         2.689266         2.797435
 C         0.319685         1.834084         2.207380
 H        -3.417892         3.676264         0.795989
 H        -2.088155         1.646389        -0.055322
 H        -0.568831         2.521162        -0.144256
 H         0.027924         0.206952        -0.490404
 H        -2.324732        -0.170908         1.708362
 H        -1.108001        -0.229861         3.101785
 H        -2.800034         1.843673         3.652012
 H        -0.721875         3.358234         3.635300
 H         1.088035         2.462681         1.640653
 H         0.928239         1.205881         2.893472
