19
Iteration:   942
 O        -2.574326         3.951632         1.440313
 C        -1.899490         2.804656         1.691453
 C        -1.420625         2.102117         0.508823
 C        -0.503116         0.846460         1.287437
 O         0.252803        -0.108740         0.541967
 C        -1.656101         0.382550         2.259647
 C        -2.140030         1.728858         2.779501
 C        -0.900669         2.648986         2.734189
 C         0.227745         1.898974         2.148657
 H        -3.267593         4.086616         2.161073
 H        -2.081801         1.425551        -0.044564
 H        -0.935930         2.737445        -0.235398
 H         0.271823         0.249327        -0.437561
 H        -2.399116        -0.098521         1.622765
 H        -1.218062        -0.471929         2.917536
 H        -2.861999         1.927309         3.629277
 H        -0.855762         3.455050         3.476976
 H         1.006713         2.412889         1.460745
 H         0.679741         1.238802         2.927982
