19
Iteration:    74
 O        -2.674756         3.868803         1.625515
 C        -1.932445         2.717234         1.627512
 C        -1.414171         1.986643         0.408851
 C        -0.509904         0.985404         1.189920
 O         0.254750        -0.009747         0.514881
 C        -1.646792         0.500809         2.319755
 C        -2.022898         1.760115         2.930140
 C        -0.880964         2.650352         2.704107
 C         0.294167         1.874261         2.043131
 H        -3.439403         3.671504         1.083212
 H        -2.262908         1.407833        -0.034551
 H        -0.994261         2.721460        -0.292618
 H        -0.192996        -0.875979         0.546069
 H        -2.474985        -0.050316         1.751086
 H        -1.376205        -0.278655         3.033432
 H        -2.834810         2.063902         3.556528
 H        -0.626465         3.379056         3.454391
 H         0.961581         2.603154         1.451776
 H         1.005408         1.322586         2.639533
