19
Iteration:  3768charge 0 multiplicity 1
 O        -2.757084         3.892356         1.366228
 C        -2.035346         2.769120         1.693782
 C        -1.398315         1.903351         0.439239
 C        -0.599925         0.872332         1.353867
 O         0.065018        -0.038733         0.412776
 C        -1.515665         0.407535         2.450574
 C        -1.965178         1.787901         2.956179
 C        -0.853436         2.718683         2.634249
 C         0.342253         1.885522         2.073438
 H        -2.143706         4.560522         1.719847
 H        -2.073514         1.275791        -0.173069
 H        -0.694156         2.597986        -0.053736
 H         1.054261         0.229001         0.614121
 H        -2.432214        -0.011118         2.042246
 H        -1.156281        -0.184994         3.306887
 H        -2.659746         1.848945         3.738024
 H        -0.723764         3.587599         3.255843
 H         0.934811         2.327947         1.225709
 H         0.936377         1.372676         2.746260
