19
Iteration:  2579
 O        -2.730277         3.793623         1.415554
 C        -1.839970         2.820018         1.683796
 C        -1.379134         1.980524         0.476513
 C        -0.606275         0.952833         1.211951
 O         0.146481        -0.009772         0.525460
 C        -1.622021         0.492082         2.326189
 C        -2.058028         1.874109         2.832525
 C        -0.764801         2.688316         2.758468
 C         0.317417         1.788164         2.104909
 H        -3.571242         3.469806         1.860075
 H        -2.076187         1.510763        -0.175699
 H        -0.817980         2.581932        -0.264085
 H        -0.228953        -0.873138         0.491462
 H        -2.491586        -0.223355         2.141694
 H        -0.855506         0.133549         3.006232
 H        -2.754864         2.128139         3.648105
 H        -0.556761         3.473752         3.454621
 H         0.869840         2.311095         1.372541
 H         0.939210         1.201195         2.781917
