19
Iteration:   837
 O        -2.701747         3.885560         1.729377
 C        -1.861381         2.834454         1.647234
 C        -1.381319         2.097306         0.378859
 C        -0.533153         0.923912         1.214380
 O         0.217607        -0.208107         0.654358
 C        -1.648683         0.440426         2.098537
 C        -2.129674         1.739374         2.649200
 C        -0.879392         2.688999         2.745121
 C         0.249914         1.838841         2.226405
 H        -2.854438         4.254185         0.806504
 H        -2.180103         1.632955        -0.190170
 H        -0.644162         2.584902        -0.219540
 H         1.090855         0.232592         0.308115
 H        -2.458370         0.022142         1.434796
 H        -1.554219        -0.314937         2.829820
 H        -2.854198         1.915251         3.486518
 H        -0.672260         3.457193         3.517381
 H         0.732155         2.547205         1.598099
 H         1.019975         1.461224         2.896754
