19
Iteration:   339
 O        -2.690268         3.869189         1.614767
 C        -1.876458         2.744319         1.595764
 C        -1.287624         2.127139         0.431450
 C        -0.577703         0.995489         1.246044
 O         0.098346        -0.043604         0.722217
 C        -1.706366         0.397599         2.111786
 C        -2.116923         1.727654         2.586501
 C        -0.779391         2.616874         2.767714
 C         0.329963         1.862993         2.188252
 H        -3.488880         3.540036         1.988811
 H        -2.136444         1.764820        -0.194935
 H        -0.453351         2.680136         0.089409
 H         0.533113         0.339512        -0.081493
 H        -2.333360        -0.094617         1.311457
 H        -1.422083        -0.278454         2.934699
 H        -2.823750         1.719130         3.400276
 H        -0.563690         3.271644         3.592986
 H         1.177253         2.412089         1.629309
 H         0.831260         1.174354         2.923850
