19
Iteration:  2885charge 0 multiplicity 1
 O        -2.646625         3.929517         1.524089
 C        -1.919006         2.713471         1.655364
 C        -1.464521         2.009168         0.392791
 C        -0.626423         0.960712         1.250546
 O         0.147439        -0.064635         0.540537
 C        -1.525495         0.427566         2.291710
 C        -2.036316         1.764632         2.844898
 C        -0.838236         2.752203         2.676314
 C         0.243576         1.823868         2.104996
 H        -3.535785         3.833100         1.199920
 H        -2.121636         1.684388        -0.344759
 H        -0.775789         2.657679        -0.127327
 H         0.706401        -0.454773         1.282104
 H        -2.369656        -0.197756         1.988099
 H        -0.902449        -0.173033         3.019599
 H        -2.756908         1.885284         3.684791
 H        -0.462633         3.510573         3.315717
 H         1.144745         2.279796         1.582332
 H         0.732015         1.123240         2.872113
