19
Iteration:  3873charge 0 multiplicity 1
 O        -2.799845         3.871469         1.492046
 C        -1.908051         2.796398         1.630739
 C        -1.447529         1.846533         0.427971
 C        -0.561841         0.928190         1.271911
 O         0.046355         0.005459         0.414376
 C        -1.534524         0.483799         2.422619
 C        -2.035407         1.829789         2.886679
 C        -0.795106         2.710009         2.699294
 C         0.376288         1.827671         2.132936
 H        -2.502644         4.496497         0.785557
 H        -2.209683         1.199027         0.037765
 H        -1.050042         2.172976        -0.531272
 H         0.959046        -0.322464         0.766626
 H        -2.375588        -0.150231         2.109823
 H        -0.990965         0.010807         3.240613
 H        -2.736743         1.978293         3.658661
 H        -0.623830         3.439640         3.490236
 H         1.120630         2.359490         1.535157
 H         1.003612         1.121573         2.845721
