19
Iteration:   368
 O        -2.576522         4.090789         1.526866
 C        -1.968529         2.743680         1.646838
 C        -1.305771         1.968339         0.469806
 C        -0.501836         0.933308         1.148276
 O         0.261378        -0.093893         0.445343
 C        -1.668142         0.372069         2.230943
 C        -2.099264         1.738246         2.811877
 C        -0.968097         2.597963         2.835567
 C         0.176429         1.882004         2.301546
 H        -3.526488         3.871951         1.287450
 H        -2.101636         1.523924        -0.209777
 H        -0.731442         2.602733        -0.280517
 H         0.668760         0.427649        -0.355674
 H        -2.493423        -0.215710         1.708207
 H        -1.288066        -0.338601         2.961814
 H        -2.831201         1.701942         3.578416
 H        -0.648395         3.256823         3.606822
 H         0.994834         2.506349         1.849038
 H         0.705329         1.289962         3.074110
