19
Iteration:  1284charge 0 multiplicity 1
 O        -2.700929         3.889249         1.328869
 C        -1.903746         2.738343         1.716353
 C        -1.344692         1.887025         0.489060
 C        -0.544538         0.952745         1.310271
 O        -0.002422         0.025395         0.257014
 C        -1.596372         0.415176         2.366817
 C        -2.068718         1.842444         2.949505
 C        -0.772051         2.656581         2.786501
 C         0.354435         1.873379         2.231614
 H        -3.427036         3.856113         1.951187
 H        -2.057603         1.303819        -0.074517
 H        -0.665682         2.468961        -0.187467
 H         0.825193        -0.379518         0.602507
 H        -2.531353         0.006281         1.868760
 H        -1.177992        -0.385920         2.976880
 H        -2.870361         2.118778         3.634710
 H        -0.614775         3.650292         3.148105
 H         1.019466         2.457114         1.635630
 H         0.934756         1.286631         2.967172
