19
Iteration:  4835charge 0 multiplicity 1
 O        -2.892686         3.784873         1.419927
 C        -1.942512         2.777238         1.706388
 C        -1.618164         1.895082         0.532577
 C        -0.646303         0.880386         1.299972
 O         0.139516        -0.027283         0.415263
 C        -1.532197         0.416108         2.443399
 C        -1.854635         1.883151         2.897918
 C        -0.628743         2.859326         2.488884
 C         0.353890         1.825986         2.107704
 H        -2.387646         4.598933         1.409476
 H        -2.621370         1.474091         0.346305
 H        -1.179215         2.284867        -0.383270
 H         0.780280        -0.355264         1.025675
 H        -2.484513        -0.119923         2.257441
 H        -0.832438        -0.086917         3.155322
 H        -2.562486         1.878342         3.670081
 H        -0.417640         3.601665         3.244430
 H         1.065494         2.168443         1.285993
 H         0.781328         1.386655         3.002213
