19
Iteration:   679charge 0 multiplicity 1
 O        -2.688338         3.932227         1.415463
 C        -1.897770         2.793793         1.675903
 C        -1.315299         2.077669         0.513897
 C        -0.503354         0.965707         1.314460
 O         0.105062         0.034873         0.471789
 C        -1.636215         0.325845         2.163270
 C        -2.090553         1.681550         2.661944
 C        -0.938913         2.583181         2.823447
 C         0.300753         1.772178         2.318051
 H        -2.289791         4.734241         1.868530
 H        -2.171603         1.601668         0.020269
 H        -0.737905         2.711144        -0.229276
 H         0.937480         0.398611         0.092516
 H        -2.451430        -0.088594         1.615090
 H        -1.348950        -0.385583         2.984801
 H        -2.915441         1.784443         3.408961
 H        -0.791905         3.143212         3.744836
 H         0.898245         2.493200         1.776161
 H         0.850696         1.132893         2.975308
