19
Iteration:  2268
 O        -2.807943         3.876020         1.604690
 C        -1.945110         2.722785         1.593398
 C        -1.377202         1.983880         0.350291
 C        -0.567347         0.915539         1.224443
 O         0.119863        -0.067208         0.647269
 C        -1.535769         0.475420         2.391563
 C        -1.982026         1.819128         2.865125
 C        -0.771790         2.698389         2.648878
 C         0.346738         1.878377         1.983244
 H        -3.709223         3.468989         1.714796
 H        -1.979948         1.655475        -0.417883
 H        -0.610025         2.692556        -0.087157
 H        -0.424588        -0.700946         0.219056
 H        -2.353905        -0.192820         1.949382
 H        -0.912995        -0.049177         3.183905
 H        -2.753427         2.152641         3.531914
 H        -0.654669         3.707612         3.063098
 H         1.189871         2.425672         1.351488
 H         0.886649         1.379276         2.893105
