19
Iteration:  1524
 O        -2.887405         3.781207         1.389814
 C        -1.835433         2.798843         1.697991
 C        -1.311118         1.971666         0.509842
 C        -0.534437         0.936347         1.233064
 O         0.168799         0.009692         0.393820
 C        -1.728185         0.491237         2.464017
 C        -2.018393         1.893428         2.859809
 C        -0.777010         2.662411         2.809753
 C         0.355791         1.747010         2.108917
 H        -2.401862         4.369125         0.781143
 H        -2.203663         1.447777         0.039374
 H        -0.582875         2.615780        -0.083513
 H        -0.535580        -0.447127        -0.195112
 H        -2.556687        -0.125871         2.041392
 H        -1.245055        -0.208584         3.131934
 H        -2.661141         2.333217         3.658682
 H        -0.534630         3.286796         3.658984
 H         1.113431         2.289335         1.450569
 H         0.964314         1.174686         2.887278
