19
Iteration:   722charge 0 multiplicity 1
 O        -2.689879         3.882004         1.596901
 C        -1.883116         2.781470         1.603452
 C        -1.310326         2.206571         0.306429
 C        -0.607080         0.955134         1.224149
 O         0.263252        -0.157178         0.688513
 C        -1.705368         0.468960         2.073433
 C        -2.057372         1.759320         2.733750
 C        -0.891221         2.562386         2.835029
 C         0.212544         1.832300         2.233003
 H        -2.982041         3.944632         2.565331
 H        -1.893406         1.576758        -0.441091
 H        -0.464926         2.839837        -0.215363
 H         0.499501         0.107974        -0.289558
 H        -2.408590        -0.103069         1.501833
 H        -1.302665        -0.379741         2.702100
 H        -2.913098         1.831047         3.470345
 H        -0.758887         3.515794         3.362904
 H         1.021892         2.453397         1.742050
 H         0.608655         1.220415         3.040464
