19
Iteration:  2246charge 0 multiplicity 1
 O        -2.657560         3.874243         1.630660
 C        -1.935584         2.696793         1.618047
 C        -1.467972         1.935867         0.403347
 C        -0.555560         0.935514         1.260575
 O         0.185281        -0.164362         0.645907
 C        -1.554871         0.455760         2.276819
 C        -2.039588         1.797663         2.865254
 C        -0.817725         2.816421         2.614804
 C         0.312263         1.982489         2.035707
 H        -3.555716         3.556879         1.528938
 H        -2.256978         1.420806        -0.025371
 H        -0.980160         2.543049        -0.403535
 H        -0.254812        -0.480961        -0.206495
 H        -2.489615        -0.014524         1.834820
 H        -1.044868        -0.163734         3.068791
 H        -2.665163         1.987678         3.716354
 H        -0.747810         3.644837         3.323988
 H         0.854136         2.568081         1.159226
 H         1.092592         1.534320         2.804514
