19
Iteration:  4193
 O        -2.802720         3.820390         1.544192
 C        -1.915216         2.763646         1.661749
 C        -1.629647         1.827227         0.554604
 C        -0.587905         0.910608         1.290756
 O         0.208261        -0.099655         0.589993
 C        -1.607031         0.503273         2.417913
 C        -1.894833         1.874015         2.849418
 C        -0.758358         2.847089         2.524036
 C         0.401158         1.868860         1.944018
 H        -2.239942         4.582327         1.388967
 H        -2.447283         1.165330         0.276562
 H        -1.315422         2.458305        -0.288412
 H        -0.329844        -0.739367        -0.048286
 H        -2.473279         0.066026         1.893103
 H        -1.226458        -0.374114         3.034521
 H        -2.479703         2.110778         3.788508
 H        -0.564551         3.659716         3.235713
 H         0.960995         2.345102         1.142719
 H         1.205675         1.457338         2.636716
