19
Iteration:    61
 O        -2.789309         3.839623         1.519959
 C        -1.855822         2.771081         1.732237
 C        -1.379618         2.021245         0.483445
 C        -0.569626         0.920086         1.273652
 O         0.166413        -0.014863         0.502582
 C        -1.637220         0.376089         2.282874
 C        -2.042264         1.788544         2.777663
 C        -0.734405         2.724167         2.763320
 C         0.371090         1.907985         2.085035
 H        -3.665389         3.443241         1.284580
 H        -2.210158         1.593789        -0.138658
 H        -0.713291         2.605967        -0.220089
 H        -0.490602        -0.569634         0.037271
 H        -2.514677        -0.087968         1.774323
 H        -1.152697        -0.238753         3.067967
 H        -2.755595         1.821614         3.597959
 H        -0.651310         3.600501         3.429250
 H         0.924716         2.529402         1.324716
 H         1.055058         1.401140         2.819241
