19
Iteration:  3453charge 0 multiplicity 1
 O        -2.727143         3.804396         1.453722
 C        -1.827989         2.771332         1.682977
 C        -1.391949         2.009291         0.440141
 C        -0.562104         0.919702         1.304817
 O         0.061445        -0.103413         0.510787
 C        -1.563087         0.411350         2.338872
 C        -2.069138         1.778639         2.802054
 C        -0.844127         2.730528         2.754102
 C         0.327858         1.976209         1.994639
 H        -2.921368         4.124740         2.353789
 H        -2.220608         1.528230        -0.201121
 H        -0.727254         2.472956        -0.251817
 H         0.790738        -0.450694         1.037117
 H        -2.399886        -0.079007         1.633425
 H        -1.348062        -0.290679         3.189870
 H        -2.788033         1.791103         3.618192
 H        -0.637065         3.550939         3.409889
 H         0.692000         2.661943         1.332970
 H         1.050121         1.707629         2.736152
