19
Iteration:  4896charge 0 multiplicity 1
 O        -2.789720         3.873191         1.389519
 C        -1.943186         2.769478         1.703940
 C        -1.526571         1.966392         0.475702
 C        -0.591783         0.960961         1.270779
 O        -0.003167        -0.178626         0.547202
 C        -1.393262         0.398446         2.421779
 C        -1.974225         1.688056         2.915612
 C        -0.756750         2.761633         2.642703
 C         0.315615         2.038298         1.915137
 H        -2.293020         4.665318         1.587981
 H        -2.431144         1.554984         0.006065
 H        -0.865732         2.352890        -0.321484
 H         0.353104        -0.708575         1.323466
 H        -2.172569        -0.305034         2.029788
 H        -0.854793        -0.152853         3.178260
 H        -2.453477         1.978638         3.842203
 H        -0.454291         3.458831         3.397300
 H         0.849776         2.762098         1.341830
 H         1.112234         1.677054         2.579882
