19
Iteration:  3574charge 0 multiplicity 1
 O        -2.799006         3.917946         1.449514
 C        -1.911675         2.830055         1.625290
 C        -1.475216         1.958216         0.484510
 C        -0.507213         0.930634         1.255489
 O         0.039574        -0.134192         0.554590
 C        -1.507090         0.431983         2.242045
 C        -1.955446         1.814419         2.836123
 C        -0.796102         2.688590         2.672114
 C         0.353218         1.887529         2.121532
 H        -3.346296         4.085621         2.234438
 H        -2.358371         1.399535         0.039953
 H        -1.078679         2.361909        -0.404150
 H         0.988060        -0.258258         0.967151
 H        -2.347324        -0.262220         1.905757
 H        -1.008928        -0.245230         2.978251
 H        -2.677665         2.021853         3.669117
 H        -0.619009         3.541164         3.376235
 H         1.003105         2.389222         1.495144
 H         0.862426         1.332544         2.927272
