19
Iteration:  2314charge 0 multiplicity 1
 O        -2.687215         3.798009         1.407185
 C        -1.922759         2.737095         1.644620
 C        -1.524980         1.847327         0.463600
 C        -0.553241         0.971648         1.281644
 O         0.096759         0.044341         0.419049
 C        -1.567380         0.487272         2.381756
 C        -1.954990         1.861815         2.973570
 C        -0.759692         2.744244         2.698734
 C         0.376663         1.875764         2.166104
 H        -3.641967         3.545614         1.224441
 H        -2.323278         1.241013         0.065802
 H        -1.057091         2.363704        -0.364379
 H        -0.230677        -0.874203         0.720614
 H        -2.476744         0.083466         1.791767
 H        -1.066365        -0.323526         2.935470
 H        -2.709711         2.016200         3.791653
 H        -0.669314         3.710688         3.182032
 H         0.990099         2.591624         1.479720
 H         1.193430         1.275217         2.741641
