19
Iteration:  3738charge 0 multiplicity 1
 O        -2.688437         3.802993         1.412027
 C        -1.832000         2.787912         1.680826
 C        -1.560816         1.878529         0.480736
 C        -0.624651         0.936059         1.242345
 O         0.016960        -0.137176         0.561529
 C        -1.479671         0.434343         2.287104
 C        -2.021900         1.775333         2.801696
 C        -0.791783         2.740193         2.791632
 C         0.353827         2.065779         2.070903
 H        -2.481245         4.642859         1.898998
 H        -2.460904         1.264878         0.131418
 H        -1.174514         2.305099        -0.483926
 H         0.898612         0.041103         0.700999
 H        -2.251148        -0.194521         1.815732
 H        -1.033330        -0.110446         3.053851
 H        -2.882345         1.968835         3.448851
 H        -0.698963         3.386724         3.633133
 H         0.915556         2.668005         1.331096
 H         1.065896         1.351443         2.736165
