19
Iteration:  3365
 O        -2.773468         3.945239         1.558164
 C        -1.937770         2.795498         1.682555
 C        -1.414388         2.009081         0.487745
 C        -0.516252         0.980335         1.206807
 O         0.092673        -0.156353         0.671390
 C        -1.588015         0.410925         2.250406
 C        -2.007112         1.718178         2.797149
 C        -0.820734         2.650854         2.715856
 C         0.387096         1.918664         2.058914
 H        -3.050611         4.037744         0.633853
 H        -2.104338         1.292118         0.002402
 H        -1.053933         2.541193        -0.318997
 H         0.544258         0.108441        -0.119436
 H        -2.348486        -0.229441         1.711141
 H        -1.142893        -0.328019         2.927811
 H        -2.847437         2.019016         3.413559
 H        -0.626141         3.439912         3.472978
 H         0.950324         2.665142         1.531650
 H         1.011939         1.428419         2.804443
