19
Iteration:  2537charge 0 multiplicity 1
 O        -2.739106         3.891197         1.451823
 C        -1.954971         2.731013         1.699463
 C        -1.340462         1.922360         0.518398
 C        -0.534339         0.916705         1.273275
 O         0.090867        -0.184172         0.522987
 C        -1.600112         0.491851         2.243452
 C        -2.046150         1.804178         2.861641
 C        -0.737045         2.820776         2.624499
 C         0.361457         1.923453         2.169406
 H        -3.673946         3.669212         1.715562
 H        -2.198940         1.428353        -0.007534
 H        -0.886513         2.554537        -0.173579
 H        -0.319198        -0.036258        -0.408985
 H        -2.328701        -0.245680         1.722301
 H        -1.159064        -0.066793         3.125679
 H        -2.588961         1.849229         3.805446
 H        -0.605625         3.666729         3.268412
 H         1.120965         2.546967         1.683108
 H         0.913091         1.396672         3.100234
