19
Iteration:  1491charge 0 multiplicity 1
 O        -2.752534         3.899060         1.669688
 C        -1.877004         2.755060         1.594612
 C        -1.409268         1.978153         0.408046
 C        -0.548350         0.976723         1.203800
 O         0.133707        -0.099118         0.732060
 C        -1.622696         0.364406         2.222497
 C        -1.946571         1.733986         2.773847
 C        -0.844458         2.752506         2.640179
 C         0.292547         1.906787         2.070296
 H        -2.098275         4.608428         1.434457
 H        -2.284512         1.497487        -0.179869
 H        -0.863343         2.525573        -0.438821
 H        -0.573209        -0.637957         0.209418
 H        -2.372845        -0.048593         1.541092
 H        -1.139584        -0.368709         2.873065
 H        -2.702658         2.044847         3.510809
 H        -0.771567         3.538476         3.426447
 H         1.054967         2.380142         1.392775
 H         0.798652         1.448959         2.966609
