19
Iteration:   845charge 0 multiplicity 1
 O        -2.702170         3.835524         1.740255
 C        -1.861536         2.774775         1.642000
 C        -1.315278         2.068274         0.457203
 C        -0.588298         1.019609         1.222920
 O         0.183173        -0.191516         0.686521
 C        -1.725695         0.426525         2.066739
 C        -2.134539         1.736459         2.651398
 C        -0.860128         2.698498         2.724675
 C         0.338889         1.861329         2.167150
 H        -2.865878         4.351568         0.899251
 H        -2.044763         1.642132        -0.281019
 H        -0.586626         2.751149        -0.176117
 H         1.017525         0.383343         0.431713
 H        -2.527985         0.006989         1.512849
 H        -1.318130        -0.346288         2.777529
 H        -3.020612         1.893043         3.277415
 H        -0.736798         3.655235         3.260039
 H         0.967447         2.467074         1.480976
 H         0.852215         1.255316         2.931957
