19
Iteration:  2288charge 0 multiplicity 1
 O        -2.852930         3.843629         1.489453
 C        -1.908282         2.888937         1.681341
 C        -1.429723         1.974423         0.490906
 C        -0.536273         0.898795         1.277057
 O         0.149920        -0.089468         0.478603
 C        -1.575515         0.428570         2.394326
 C        -1.944391         1.800964         2.758863
 C        -0.712895         2.830384         2.614880
 C         0.328214         1.848307         2.120150
 H        -3.790257         3.502378         1.518727
 H        -2.295212         1.428154         0.123741
 H        -0.811760         2.506785        -0.291444
 H        -0.505840        -0.889617         0.545591
 H        -2.336345        -0.239179         1.981570
 H        -0.995504        -0.163491         3.186495
 H        -2.543264         1.952039         3.622754
 H        -0.552998         3.489963         3.476564
 H         1.134252         2.375731         1.520322
 H         0.972462         1.336513         2.880431
