19
Iteration:  4753charge 0 multiplicity 1
 O        -2.833965         3.777370         1.462910
 C        -1.957638         2.730228         1.667754
 C        -1.607087         1.830953         0.396745
 C        -0.551455         0.981221         1.220626
 O         0.015014        -0.044964         0.440788
 C        -1.441403         0.471702         2.493696
 C        -1.950301         1.948507         2.930174
 C        -0.693042         2.715394         2.681412
 C         0.351577         1.882254         2.037718
 H        -2.228316         4.502445         1.130970
 H        -2.436214         1.283333        -0.074626
 H        -1.057469         2.454788        -0.307442
 H         0.492753        -0.803454         0.963565
 H        -2.204625        -0.297599         2.369969
 H        -0.726115         0.099297         3.226653
 H        -2.466817         2.176203         3.862489
 H        -0.539481         3.730587         3.120820
 H         1.068163         2.473557         1.435855
 H         1.053913         1.337640         2.778483
