19
Iteration:  4932charge 0 multiplicity 1
 O        -2.893779         3.659808         1.648028
 C        -1.832317         2.767446         1.615778
 C        -1.500831         1.878660         0.403042
 C        -0.573740         0.883009         1.250689
 O         0.097158        -0.059542         0.462626
 C        -1.669753         0.531449         2.447575
 C        -1.908785         1.975189         2.853304
 C        -0.690287         2.841471         2.530525
 C         0.383978         1.863290         2.098563
 H        -2.571111         4.416273         1.155412
 H        -2.336024         1.321790         0.022650
 H        -0.873804         2.270835        -0.386003
 H         0.501662        -0.808635         0.944581
 H        -2.584685         0.113613         1.906527
 H        -1.316980        -0.136007         3.180940
 H        -2.636850         2.304637         3.589073
 H        -0.206533         3.645151         3.123192
 H         1.184032         2.334193         1.369568
 H         0.755095         1.444526         3.040287
