19
Iteration:    93
 O        -2.559676         4.011088         1.707543
 C        -2.013983         2.693542         1.663575
 C        -1.555102         1.859059         0.378462
 C        -0.627954         0.925729         1.202260
 O         0.283914         0.029837         0.542272
 C        -1.570225         0.366691         2.191688
 C        -2.075608         1.707836         2.814437
 C        -0.811563         2.755159         2.672319
 C         0.274731         1.912020         2.096300
 H        -3.275639         4.092414         1.037697
 H        -2.358665         1.320557        -0.188807
 H        -0.989506         2.562515        -0.305042
 H         0.380585        -0.711107         1.221941
 H        -2.420525        -0.254249         1.838785
 H        -1.108046        -0.291252         2.997896
 H        -2.659639         1.758578         3.719022
 H        -0.804999         3.776407         3.082827
 H         1.058611         2.499046         1.552673
 H         0.831124         1.360769         2.930375
