19
Iteration:   883charge 0 multiplicity 1
 O        -2.846076         3.841337         1.462947
 C        -1.860148         2.831575         1.655975
 C        -1.281169         2.077002         0.536432
 C        -0.560287         0.899191         1.231756
 O         0.125633        -0.155535         0.434325
 C        -1.646884         0.452433         2.169410
 C        -2.074575         1.792531         2.763114
 C        -0.827878         2.684908         2.842095
 C         0.315148         1.821994         2.282946
 H        -2.368193         4.708358         1.415069
 H        -2.091872         1.664774        -0.052612
 H        -0.642102         2.707221        -0.007003
 H         0.981018         0.201281         0.134564
 H        -2.473755        -0.219133         1.794442
 H        -1.120967        -0.215274         2.878102
 H        -2.939277         1.849618         3.406097
 H        -0.840523         3.534644         3.503255
 H         1.187338         2.328185         1.858784
 H         0.730549         1.144347         3.039294
