19
Iteration:  3131
 O        -2.752053         3.970475         1.544304
 C        -1.913156         2.741679         1.599691
 C        -1.383352         1.984060         0.387018
 C        -0.593102         0.926148         1.285167
 O         0.139643        -0.023941         0.536601
 C        -1.555608         0.431439         2.250609
 C        -2.039808         1.791216         2.776375
 C        -0.841173         2.737548         2.641510
 C         0.380768         1.823532         2.217666
 H        -3.568027         3.631915         1.967964
 H        -2.124881         1.473743        -0.208899
 H        -0.639483         2.486592        -0.251514
 H        -0.079071        -0.958312         0.902684
 H        -2.316013        -0.196979         1.684095
 H        -1.039910        -0.248475         3.056265
 H        -2.763870         1.754874         3.604930
 H        -0.704501         3.557122         3.358419
 H         1.182393         2.389318         1.710507
 H         0.875582         1.153249         3.087809
