19
Iteration:  4504
 O        -2.915919         3.709874         1.498531
 C        -1.850119         2.781323         1.631855
 C        -1.450538         1.863893         0.526180
 C        -0.622489         0.843869         1.331722
 O        -0.034850        -0.005101         0.358169
 C        -1.539698         0.427305         2.506036
 C        -1.839513         1.982636         2.985259
 C        -0.622890         2.897058         2.547465
 C         0.372360         1.848553         2.065358
 H        -3.251768         3.971968         0.628465
 H        -2.183797         1.278814        -0.035760
 H        -0.992594         2.453781        -0.322765
 H         0.392242        -0.779935         0.929216
 H        -2.487360         0.017580         2.002219
 H        -1.084559        -0.290170         3.176197
 H        -2.556564         2.327878         3.775107
 H        -0.435684         3.843772         3.022723
 H         1.155118         2.271149         1.343712
 H         0.960462         1.295128         2.758560
