19
Iteration:   454charge 0 multiplicity 1
 O        -2.742723         3.881749         1.676046
 C        -1.885690         2.837147         1.650124
 C        -1.234885         2.087885         0.376969
 C        -0.536698         0.981136         1.237398
 O         0.069635        -0.085195         0.680004
 C        -1.611726         0.419913         2.070978
 C        -2.100196         1.732545         2.632503
 C        -0.872097         2.663132         2.705644
 C         0.345670         1.804446         2.250505
 H        -3.620820         3.555084         1.489316
 H        -2.076575         1.742071        -0.286310
 H        -0.544085         2.900085        -0.036029
 H         0.949978         0.063955         0.281914
 H        -2.419049        -0.018700         1.420640
 H        -1.329192        -0.388369         2.747724
 H        -2.852350         1.853075         3.386689
 H        -0.887453         3.358793         3.514989
 H         1.239009         2.154396         1.742948
 H         0.732382         1.123970         3.070254
