19
Iteration:    64
 O        -2.771346         3.840531         1.539160
 C        -1.866676         2.759676         1.706223
 C        -1.374627         2.023611         0.464884
 C        -0.559671         0.922131         1.252176
 O         0.187006        -0.012232         0.503503
 C        -1.639796         0.399968         2.293459
 C        -2.049475         1.766882         2.810757
 C        -0.750536         2.722971         2.763629
 C         0.365589         1.892420         2.070327
 H        -3.609209         3.506140         1.242775
 H        -2.203375         1.552727        -0.101419
 H        -0.842994         2.660642        -0.243705
 H        -0.464062        -0.616970         0.162652
 H        -2.540130        -0.045177         1.776481
 H        -1.260971        -0.189735         3.115351
 H        -2.781245         1.880518         3.602783
 H        -0.671805         3.559563         3.435382
 H         0.889954         2.577630         1.345553
 H         1.023518         1.414419         2.759468
