19
Iteration:  2805charge 0 multiplicity 1
 O        -2.719182         3.976729         1.371329
 C        -1.933906         2.780945         1.722438
 C        -1.432962         1.960253         0.505842
 C        -0.647981         0.912725         1.261348
 O         0.190343         0.006304         0.418906
 C        -1.540141         0.439197         2.362900
 C        -2.051841         1.753181         2.862261
 C        -0.750798         2.741364         2.715536
 C         0.290952         1.751376         2.135025
 H        -3.471213         3.534701         0.990884
 H        -2.279316         1.554367        -0.022861
 H        -0.886006         2.566044        -0.080409
 H         0.529729        -0.830892         0.889257
 H        -2.466904        -0.075013         2.121767
 H        -0.899046         0.123562         3.255126
 H        -2.744101         1.833738         3.668613
 H        -0.678263         3.587543         3.435118
 H         1.151674         2.330839         1.551348
 H         0.683880         0.989675         2.863749
