19
Iteration:  2167
 O        -2.755101         3.906822         1.500726
 C        -1.909533         2.799543         1.621616
 C        -1.395472         1.902534         0.520299
 C        -0.521030         0.932825         1.352599
 O         0.091594        -0.059309         0.468280
 C        -1.525293         0.427196         2.299142
 C        -2.006776         1.801198         2.850646
 C        -0.828075         2.719316         2.635122
 C         0.347316         1.924205         2.094171
 H        -3.606361         3.500402         1.399998
 H        -2.099975         1.403089        -0.060369
 H        -0.708470         2.463485        -0.101278
 H        -0.665441        -0.698724         0.334202
 H        -2.293783        -0.241795         1.936378
 H        -1.030929        -0.119064         3.158360
 H        -2.633359         1.866146         3.777341
 H        -0.647594         3.533238         3.339624
 H         1.041794         2.547468         1.435534
 H         1.007539         1.512219         2.900069
