19
Iteration:  4031
 O        -2.681938         3.879015         1.470521
 C        -1.921320         2.729710         1.652769
 C        -1.534947         1.825212         0.516394
 C        -0.516903         0.976869         1.237115
 O        -0.006394        -0.040808         0.487173
 C        -1.475989         0.465871         2.427253
 C        -2.030657         1.776757         2.842158
 C        -0.788370         2.668809         2.748963
 C         0.338031         1.984748         2.018925
 H        -2.773620         4.083845         0.507107
 H        -2.481451         1.361285         0.198857
 H        -1.059881         2.322631        -0.315411
 H         0.541865        -0.579679         1.113495
 H        -2.110318        -0.205072         1.894415
 H        -1.100717        -0.087562         3.264791
 H        -2.714274         2.093501         3.561609
 H        -0.509565         3.579460         3.279354
 H         0.886109         2.708136         1.391784
 H         1.167190         1.577131         2.569514
