19
Iteration:  2175charge 0 multiplicity 1
 O        -2.699729         3.879069         1.469755
 C        -1.961373         2.764233         1.642069
 C        -1.330784         1.870848         0.453862
 C        -0.550725         0.954265         1.312210
 O         0.080502         0.002235         0.433693
 C        -1.551617         0.382548         2.404380
 C        -1.975913         1.804513         2.914744
 C        -0.826883         2.757718         2.668565
 C         0.349455         1.913618         2.101110
 H        -3.614832         3.667769         1.304759
 H        -2.114141         1.302467        -0.206955
 H        -0.786954         2.536043        -0.173009
 H        -0.734866        -0.604048         0.210834
 H        -2.347625        -0.233171         1.967925
 H        -0.990033        -0.226093         3.139103
 H        -2.733213         1.908215         3.746343
 H        -0.865107         3.619796         3.366223
 H         1.020904         2.419292         1.427102
 H         0.933370         1.543770         2.908375
