19
Iteration:  2213
 O        -2.691057         3.979523         1.429904
 C        -1.942442         2.754513         1.701944
 C        -1.520309         1.837278         0.528998
 C        -0.588204         0.907621         1.260811
 O         0.211482         0.031604         0.512646
 C        -1.534454         0.434990         2.381621
 C        -2.071896         1.782754         2.874342
 C        -0.763184         2.766216         2.705309
 C         0.303841         1.822853         2.041869
 H        -3.475797         3.669437         0.963989
 H        -2.319796         1.216617         0.316077
 H        -1.089246         2.341834        -0.373834
 H        -0.085497        -0.120786        -0.344141
 H        -2.264098        -0.354163         2.025665
 H        -0.959130        -0.141905         3.164156
 H        -2.581804         2.035987         3.764877
 H        -0.606055         3.424502         3.549755
 H         1.097199         2.214316         1.261386
 H         1.038132         1.273805         2.766458
