19
Iteration:  1760
 O        -2.747736         3.967563         1.512301
 C        -1.936767         2.777043         1.676398
 C        -1.402942         1.973532         0.401559
 C        -0.586956         0.907626         1.270895
 O         0.109856        -0.134537         0.596098
 C        -1.595370         0.347502         2.294385
 C        -2.062096         1.743204         2.812578
 C        -0.829094         2.723675         2.647430
 C         0.318880         1.897523         2.066297
 H        -2.246912         4.669695         1.938962
 H        -2.193006         1.777661        -0.356902
 H        -0.526977         2.430084        -0.100662
 H         0.994831         0.129162         0.647183
 H        -2.274019        -0.320954         1.860638
 H        -1.073112        -0.223322         3.075466
 H        -2.835775         1.843422         3.571488
 H        -0.781421         3.434132         3.436167
 H         1.042426         2.503543         1.482510
 H         0.894944         1.382066         2.783871
