19
Iteration:   623
 O        -2.798930         3.924985         1.618462
 C        -1.860557         2.879027         1.627681
 C        -1.204479         2.017482         0.495779
 C        -0.575400         0.984184         1.338012
 O         0.137690        -0.016139         0.519338
 C        -1.698876         0.339816         2.040226
 C        -2.181325         1.719615         2.693052
 C        -0.861963         2.622007         2.810960
 C         0.359251         1.786029         2.247535
 H        -2.735476         4.384633         0.758025
 H        -2.027052         1.578578        -0.172587
 H        -0.447113         2.557947        -0.160235
 H         1.087925         0.318595         0.363758
 H        -2.465066        -0.106935         1.409849
 H        -1.483882        -0.424369         2.814413
 H        -2.946155         1.732791         3.470762
 H        -0.540851         3.205977         3.673123
 H         1.214174         2.372092         1.842259
 H         0.869294         1.064191         2.875253
