19
Iteration:  2890charge 0 multiplicity 1
 O        -2.604822         3.926672         1.511779
 C        -1.940635         2.685627         1.677723
 C        -1.482446         1.986601         0.423494
 C        -0.629173         0.978579         1.261905
 O         0.154429        -0.030955         0.530147
 C        -1.553026         0.393443         2.296184
 C        -2.025954         1.797167         2.825427
 C        -0.818762         2.756744         2.665248
 C         0.238939         1.848384         2.123502
 H        -3.499728         3.705585         1.124122
 H        -2.224154         1.451967        -0.316720
 H        -0.726916         2.741755        -0.043098
 H         0.710341        -0.493613         1.201258
 H        -2.364033        -0.283843         1.986235
 H        -0.882561        -0.254805         2.848483
 H        -2.690169         2.025165         3.625757
 H        -0.564076         3.543268         3.423045
 H         1.053971         2.220378         1.544160
 H         0.603014         1.063666         2.762055
