19
Iteration:  4795
 O        -2.896731         3.697020         1.677920
 C        -1.879353         2.736214         1.591492
 C        -1.383955         1.941755         0.421579
 C        -0.562136         0.925182         1.328947
 O        -0.105869        -0.187175         0.566797
 C        -1.581477         0.475082         2.373248
 C        -1.963276         1.841289         2.815971
 C        -0.649840         2.846604         2.589229
 C         0.445495         2.038117         1.979356
 H        -3.038170         4.153123         0.809510
 H        -2.084208         1.281189        -0.169940
 H        -0.795627         2.646425        -0.215823
 H         0.764734        -0.516410         0.958557
 H        -2.283416        -0.056563         1.769550
 H        -1.211311        -0.136106         3.255467
 H        -2.564349         2.150358         3.665257
 H        -0.319473         3.705936         3.223985
 H         0.749229         2.627045         1.169128
 H         1.378903         1.727249         2.539994
