19
Iteration:  2985charge 0 multiplicity 1
 O        -2.801127         3.906001         1.634867
 C        -1.847261         2.803894         1.662332
 C        -1.345119         2.000381         0.393249
 C        -0.511418         0.877188         1.273395
 O         0.147713        -0.174557         0.503340
 C        -1.700037         0.501207         2.243767
 C        -2.046850         1.830902         2.772742
 C        -0.783724         2.713790         2.661332
 C         0.364444         1.905946         2.128893
 H        -3.692130         3.629200         1.360450
 H        -2.017656         1.406321        -0.107500
 H        -0.663826         2.640047        -0.223039
 H         0.521873        -0.746806         1.127909
 H        -2.503641         0.026602         1.603749
 H        -1.349864        -0.272401         3.032124
 H        -2.781977         1.849372         3.546518
 H        -0.836703         3.554223         3.365633
 H         1.011640         2.548214         1.496016
 H         0.886118         1.466852         3.066865
