19
Iteration:  4073
 O        -2.900756         3.881533         1.486264
 C        -1.931360         2.805615         1.611151
 C        -1.455067         1.921135         0.446241
 C        -0.575974         0.867171         1.318483
 O         0.062841        -0.123614         0.508587
 C        -1.511420         0.423419         2.444811
 C        -1.893810         1.864700         2.861801
 C        -0.713316         2.751432         2.593351
 C         0.258396         1.859561         1.994199
 H        -2.423714         4.640785         1.913823
 H        -2.127647         1.331814        -0.154314
 H        -0.843925         2.592879        -0.146666
 H         0.931572        -0.233133         0.770854
 H        -2.396568        -0.117316         2.198366
 H        -1.078042        -0.149594         3.240905
 H        -2.542339         1.954845         3.669156
 H        -0.492652         3.592005         3.250160
 H         1.008449         2.385373         1.399940
 H         0.902343         1.355239         2.801402
