19
Iteration:  2171
 O        -2.721806         3.889584         1.488765
 C        -1.943602         2.807728         1.623516
 C        -1.358179         1.869930         0.494515
 C        -0.538574         0.953325         1.349801
 O         0.084549        -0.035152         0.445645
 C        -1.532524         0.402129         2.336638
 C        -1.993791         1.811912         2.894750
 C        -0.827904         2.730407         2.647462
 C         0.343149         1.913602         2.087775
 H        -3.649070         3.536815         1.355836
 H        -2.120914         1.342544        -0.145609
 H        -0.710851         2.561039        -0.143008
 H        -0.679499        -0.588042         0.316394
 H        -2.339482        -0.290719         1.970462
 H        -1.033871        -0.148445         3.126442
 H        -2.644625         1.851570         3.727004
 H        -0.794137         3.553978         3.349225
 H         1.054773         2.473123         1.473882
 H         1.014119         1.576711         2.913127
