19
Iteration:  2081
 O        -2.660816         3.925813         1.416129
 C        -1.914690         2.770933         1.634571
 C        -1.484258         1.868600         0.482696
 C        -0.523308         0.921463         1.287796
 O         0.112807        -0.017873         0.457397
 C        -1.445040         0.399090         2.387092
 C        -2.054432         1.833605         2.835999
 C        -0.850237         2.735208         2.832754
 C         0.310452         1.906077         2.103727
 H        -3.523266         3.595801         1.080029
 H        -2.348155         1.278656         0.105500
 H        -1.009526         2.399964        -0.383344
 H        -0.413815        -0.124135        -0.280470
 H        -2.280179        -0.250894         2.103804
 H        -0.989380        -0.101006         3.266056
 H        -2.919057         1.756022         3.548644
 H        -0.592887         3.484969         3.589941
 H         1.159413         2.423883         1.613808
 H         0.908430         1.200120         2.715045
