19
Iteration:   835
 O        -2.712875         3.911808         1.721045
 C        -1.854988         2.829501         1.644462
 C        -1.388500         2.096697         0.366584
 C        -0.517669         0.892129         1.224619
 O         0.221701        -0.197636         0.645645
 C        -1.648887         0.436035         2.102244
 C        -2.126674         1.750494         2.663033
 C        -0.876354         2.675388         2.753709
 C         0.230167         1.844657         2.226664
 H        -2.845205         4.231207         0.811145
 H        -2.231591         1.633037        -0.184826
 H        -0.625607         2.620578        -0.296924
 H         1.110027         0.148399         0.268995
 H        -2.402444         0.040099         1.430173
 H        -1.528611        -0.320339         2.868884
 H        -2.835489         1.885604         3.490998
 H        -0.702280         3.391571         3.576842
 H         0.774028         2.560162         1.639236
 H         1.014722         1.477244         2.877184
