19
Iteration:  3782charge 0 multiplicity 1
 O        -2.802669         3.858837         1.456355
 C        -1.917173         2.683280         1.588332
 C        -1.437234         1.875674         0.493392
 C        -0.633640         0.882098         1.256571
 O         0.084017        -0.001358         0.453972
 C        -1.569293         0.375667         2.450844
 C        -1.931466         1.832880         2.898206
 C        -0.763441         2.828797         2.608309
 C         0.253603         1.841839         2.124582
 H        -2.290169         4.705268         1.505842
 H        -2.154990         1.632641        -0.316504
 H        -0.672901         2.371679        -0.084921
 H         0.988734         0.100982         0.528594
 H        -2.387976        -0.278221         2.152323
 H        -0.891503        -0.164700         2.993210
 H        -2.622981         2.133801         3.737758
 H        -0.560492         3.654449         3.290901
 H         1.067051         2.343870         1.594783
 H         0.667943         1.331833         3.093516
