19
Iteration:  2926charge 0 multiplicity 1
 O        -2.638629         3.987096         1.424429
 C        -1.904227         2.807824         1.643722
 C        -1.420898         1.782532         0.538372
 C        -0.510750         0.879394         1.352435
 O         0.114453         0.042594         0.304187
 C        -1.622328         0.397711         2.361155
 C        -2.096557         1.850560         2.846566
 C        -0.793752         2.668543         2.844986
 C         0.295733         1.900788         2.165851
 H        -3.491155         3.668049         0.983299
 H        -2.199355         1.141917        -0.028250
 H        -0.891425         2.219444        -0.259815
 H         0.729228        -0.722264         0.534897
 H        -2.312847        -0.083436         1.650431
 H        -1.258153        -0.356142         3.209156
 H        -2.969095         2.033726         3.528436
 H        -0.859901         3.460580         3.571393
 H         0.874613         2.615352         1.408168
 H         1.078906         1.512655         2.815895
