19
Iteration:  4048
 O        -2.659278         3.798845         1.553405
 C        -1.944379         2.700840         1.639431
 C        -1.509916         1.864435         0.441932
 C        -0.527395         0.964178         1.323648
 O        -0.048981        -0.136024         0.498778
 C        -1.523619         0.488060         2.355748
 C        -2.047543         1.801505         2.859611
 C        -0.803253         2.793692         2.662830
 C         0.382400         2.046572         2.013158
 H        -2.130271         4.301193         0.855588
 H        -2.222913         1.093966         0.087099
 H        -1.068557         2.529027        -0.384556
 H         0.797878        -0.441464         0.815299
 H        -2.311256        -0.292058         2.065903
 H        -0.805534        -0.067661         3.114911
 H        -2.791584         1.751543         3.712812
 H        -0.958377         3.618942         3.355887
 H         0.985777         2.687985         1.315446
 H         1.185422         1.699903         2.781540
