19
Iteration:   824charge 0 multiplicity 1
 O        -2.761549         4.051866         1.642985
 C        -1.870008         2.813590         1.638742
 C        -1.366404         2.052302         0.359979
 C        -0.448517         0.862557         1.292700
 O         0.212989        -0.139571         0.596560
 C        -1.696138         0.369635         2.140460
 C        -2.087188         1.753754         2.729545
 C        -0.888692         2.581010         2.821888
 C         0.294294         1.882356         2.164935
 H        -2.884464         4.286058         0.743299
 H        -2.264811         1.653196        -0.158840
 H        -0.877371         2.737358        -0.424258
 H         1.032594         0.074812         0.206089
 H        -2.429546        -0.144485         1.544334
 H        -1.227062        -0.281082         2.874188
 H        -2.964531         1.789990         3.375270
 H        -0.870594         3.236934         3.704479
 H         1.020112         2.450356         1.671258
 H         0.671221         1.218319         2.974925
