19
Iteration:  2325
 O        -2.624597         3.872638         1.417445
 C        -1.958699         2.626211         1.669720
 C        -1.492336         1.879863         0.454417
 C        -0.560459         0.982440         1.266859
 O         0.083933         0.082583         0.460915
 C        -1.613144         0.439190         2.452174
 C        -1.900587         1.762906         2.903766
 C        -0.776130         2.740004         2.670635
 C         0.302318         1.917350         2.059280
 H        -3.529086         3.687161         1.119645
 H        -2.153566         1.241883        -0.055306
 H        -1.031628         2.521743        -0.297484
 H         0.013787        -0.892347         0.792027
 H        -2.517271        -0.198809         2.075357
 H        -1.144595        -0.078620         3.321327
 H        -2.504447         1.981900         3.814854
 H        -0.628396         3.606363         3.302449
 H         0.895198         2.584310         1.296320
 H         0.922157         1.496110         2.959111
