19
Iteration:     1
 O        -2.767220         3.815242         1.462460
 C        -1.909531         2.746083         1.691400
 C        -1.426191         1.970405         0.480604
 C        -0.555811         0.954979         1.252012
 O         0.079431         0.032562         0.411436
 C        -1.562716         0.408774         2.304401
 C        -2.004868         1.761650         2.841398
 C        -0.794975         2.706059         2.719366
 C         0.338415         1.892726         2.112681
 H        -2.992173         4.217591         2.307294
 H        -2.238621         1.486583        -0.069490
 H        -0.837402         2.580337        -0.210799
 H         0.599523        -0.563462         0.960665
 H        -2.369182        -0.161719         1.833224
 H        -1.076607        -0.223696         3.057591
 H        -2.728697         1.879887         3.638935
 H        -0.639487         3.510591         3.428277
 H         1.019207         2.483099         1.491523
 H         0.927651         1.340795         2.855500
