19
Iteration:  4177
 O        -2.750630         3.887017         1.575632
 C        -1.923765         2.774965         1.648045
 C        -1.615931         1.802862         0.380997
 C        -0.612911         0.900232         1.248124
 O         0.147911        -0.060475         0.591743
 C        -1.469518         0.400926         2.413868
 C        -1.930802         1.853464         2.900634
 C        -0.706997         2.743600         2.642469
 C         0.298136         1.968417         1.950580
 H        -2.421028         4.467001         0.887954
 H        -2.619475         1.363307         0.184266
 H        -1.083318         2.220022        -0.524230
 H        -0.448665        -0.840703         0.566324
 H        -2.378031        -0.193532         2.149271
 H        -0.889135         0.108468         3.275471
 H        -2.694451         2.102072         3.612221
 H        -0.414024         3.671760         3.151008
 H         0.951972         2.536109         1.257132
 H         0.859448         1.407831         2.662339
