19
Iteration:  4135charge 0 multiplicity 1
 O        -2.754962         3.891315         1.500287
 C        -1.906645         2.755358         1.651463
 C        -1.463646         1.889749         0.529689
 C        -0.532337         0.881962         1.290845
 O        -0.091953        -0.141967         0.429179
 C        -1.537651         0.420096         2.492397
 C        -1.949304         1.810578         2.899854
 C        -0.746467         2.819174         2.596056
 C         0.434357         2.023542         1.998597
 H        -3.479836         3.545777         0.922887
 H        -2.138232         1.373866        -0.170639
 H        -0.761632         2.524025        -0.110217
 H         0.288523        -0.821801         0.918199
 H        -2.298813        -0.196761         1.924124
 H        -0.881287        -0.211119         3.189227
 H        -2.502027         1.916041         3.789954
 H        -0.601163         3.793487         3.073935
 H         1.033133         2.679617         1.363217
 H         0.981528         1.605722         2.830294
