19
Iteration:  2000charge 0 multiplicity 1
 O        -2.767357         3.873572         1.668191
 C        -1.881662         2.735405         1.604335
 C        -1.448047         1.976270         0.357166
 C        -0.629009         0.967217         1.160600
 O         0.184303        -0.081631         0.771627
 C        -1.532764         0.485220         2.248974
 C        -2.001453         1.813479         2.762479
 C        -0.723605         2.762189         2.578242
 C         0.315281         1.850721         2.097591
 H        -3.584681         3.420726         1.916418
 H        -2.273183         1.545168        -0.053831
 H        -1.055769         2.539635        -0.403796
 H        -0.060836        -0.515052        -0.036058
 H        -2.369160        -0.140146         1.855355
 H        -0.969701        -0.105944         2.972425
 H        -2.884189         2.050301         3.361383
 H        -0.705198         3.378642         3.460965
 H         1.042753         2.355382         1.486717
 H         0.689837         1.122720         2.810049
