19
Iteration:  3305charge 0 multiplicity 1
 O        -2.744397         3.860140         1.474094
 C        -1.838802         2.848751         1.633975
 C        -1.364929         1.894800         0.557740
 C        -0.573799         0.827722         1.374006
 O         0.088625         0.023019         0.441036
 C        -1.643585         0.421968         2.377664
 C        -2.090477         1.827022         2.735589
 C        -0.805324         2.715927         2.666191
 C         0.407940         1.849202         2.078871
 H        -3.601173         3.614335         1.902544
 H        -2.187306         1.329551         0.122426
 H        -0.702954         2.520967        -0.210889
 H         0.861325         0.501582         0.297200
 H        -2.447286         0.035246         1.728569
 H        -1.310869        -0.166110         3.320831
 H        -2.808028         2.038734         3.506195
 H        -0.930029         3.242969         3.588303
 H         1.142158         2.271210         1.363769
 H         1.060277         1.259089         2.755059
