19
Iteration:  2904
 O        -2.579002         3.921812         1.466160
 C        -1.913113         2.723330         1.663021
 C        -1.458662         1.892126         0.502786
 C        -0.581653         0.920145         1.250457
 O         0.139108         0.091778         0.452221
 C        -1.669210         0.364730         2.319720
 C        -2.021043         1.771382         2.863631
 C        -0.820172         2.712312         2.677366
 C         0.316399         1.863185         2.149780
 H        -3.403776         3.833983         0.984578
 H        -2.332131         1.358538         0.056564
 H        -1.067070         2.414272        -0.314351
 H         0.624487        -0.478294         1.042943
 H        -2.484243        -0.154907         1.778963
 H        -1.246087        -0.257715         3.214450
 H        -2.733230         1.954903         3.688150
 H        -0.845423         3.603116         3.323050
 H         1.082120         2.485861         1.531832
 H         0.896492         1.464041         2.983728
