19
Iteration:    21charge 0 multiplicity 1
 O        -2.801525         3.708528         1.421894
 C        -1.976496         2.667737         1.640690
 C        -1.366325         2.024523         0.458827
 C        -0.531454         1.011691         1.193687
 O        -0.049852        -0.082994         0.325632
 C        -1.536285         0.522149         2.345760
 C        -2.021845         1.849792         2.896329
 C        -0.737884         2.723592         2.808188
 C         0.437129         1.857607         2.298207
 H        -3.418853         3.802311         2.138893
 H        -2.040605         1.633994        -0.313822
 H        -0.729530         2.734200        -0.051190
 H         0.885074         0.133425         0.066709
 H        -2.397068        -0.068899         1.917699
 H        -0.972023        -0.043867         3.077167
 H        -2.797106         2.018424         3.637863
 H        -0.522648         3.707852         3.209334
 H         1.250080         2.419327         1.768326
 H         0.828658         1.162584         2.989886
