19
Iteration:  1779charge 0 multiplicity 1
 O        -2.723646         3.918130         1.317363
 C        -1.932533         2.816225         1.680049
 C        -1.436036         1.993448         0.554266
 C        -0.511754         0.944316         1.306786
 O         0.025980        -0.043851         0.467397
 C        -1.545708         0.386102         2.280399
 C        -2.019878         1.704004         2.825720
 C        -0.815175         2.675341         2.722723
 C         0.304900         1.854025         2.148025
 H        -2.336940         4.544277         1.932924
 H        -2.087653         1.245591         0.191134
 H        -1.061129         2.666085        -0.272769
 H         0.777818        -0.342826         0.879592
 H        -2.441327        -0.103274         1.813791
 H        -1.168281        -0.307356         2.987555
 H        -2.614069         1.750710         3.743792
 H        -0.674084         3.437611         3.448842
 H         0.945293         2.525354         1.587190
 H         0.964019         1.514542         3.012030
