19
Iteration:   792charge 0 multiplicity 1
 O        -2.546634         3.859773         1.470802
 C        -1.884821         2.723220         1.685041
 C        -1.334985         2.047379         0.479830
 C        -0.512770         0.952240         1.326649
 O         0.077443         0.040426         0.420962
 C        -1.630616         0.390218         2.211265
 C        -2.126571         1.710738         2.783816
 C        -0.915214         2.646045         2.806260
 C         0.219934         1.827633         2.254840
 H        -2.909251         3.872199         0.550224
 H        -2.138189         1.750297        -0.184965
 H        -0.739233         2.843902         0.035029
 H         0.838780         0.671408         0.083264
 H        -2.355574        -0.297796         1.777938
 H        -1.201217        -0.233140         2.979674
 H        -2.866133         1.876708         3.568725
 H        -0.795834         3.433704         3.555677
 H         1.051719         2.256229         1.758532
 H         0.519017         1.251215         3.147171
