19
Iteration:  4591charge 0 multiplicity 1
 O        -2.744576         3.916521         1.415018
 C        -1.978420         2.738884         1.687720
 C        -1.615792         1.859628         0.545090
 C        -0.534342         0.859119         1.306623
 O         0.034124        -0.090111         0.417795
 C        -1.407764         0.442751         2.574693
 C        -2.040464         1.838932         2.906838
 C        -0.748060         2.739860         2.582442
 C         0.377815         1.966456         1.880913
 H        -2.366444         4.686867         1.821643
 H        -2.426616         1.235944         0.189873
 H        -1.198179         2.433834        -0.296986
 H         0.588329        -0.834205         0.841277
 H        -2.060606        -0.495524         2.395829
 H        -0.797549         0.249884         3.460073
 H        -2.789885         1.812124         3.671854
 H        -0.561182         3.622693         3.193386
 H         0.956676         2.516674         1.091818
 H         1.052935         1.602271         2.593538
