19
Iteration:  1269
 O        -2.772272         3.904942         1.359380
 C        -1.890449         2.770094         1.627522
 C        -1.373224         1.954094         0.548243
 C        -0.530242         0.904166         1.297234
 O        -0.032742         0.062864         0.373744
 C        -1.608927         0.413184         2.301381
 C        -1.892229         1.758477         2.847820
 C        -0.770077         2.781953         2.726824
 C         0.377822         1.805701         2.242853
 H        -3.706986         3.676673         1.613493
 H        -2.246630         1.437141        -0.100543
 H        -0.717984         2.536066        -0.136339
 H         0.417212        -0.809105         0.720632
 H        -2.376517        -0.091422         1.759698
 H        -1.317810        -0.254186         3.169813
 H        -2.578515         1.802807         3.725829
 H        -0.654952         3.363696         3.663384
 H         1.252657         2.323716         1.729872
 H         0.733397         1.291428         3.117198
