19
Iteration:  4544
 O        -2.902792         3.708671         1.585857
 C        -1.865504         2.757255         1.645530
 C        -1.540475         1.907927         0.451475
 C        -0.585818         0.975295         1.213425
 O         0.018108        -0.166363         0.552372
 C        -1.503270         0.466972         2.422836
 C        -1.901654         1.918064         2.882023
 C        -0.664376         2.872103         2.568975
 C         0.385907         1.897250         1.957946
 H        -2.523663         4.451756         1.062997
 H        -2.490804         1.423407         0.183945
 H        -1.076384         2.452542        -0.336818
 H         0.409524        -0.633633         1.246072
 H        -2.397226        -0.044600         2.064917
 H        -1.013133        -0.222175         3.152169
 H        -2.600682         2.175736         3.757271
 H        -0.415092         3.752306         3.170816
 H         0.932113         2.409187         1.199925
 H         1.099258         1.414181         2.689627
