19
Iteration:  1716charge 0 multiplicity 1
 O        -2.814681         3.916693         1.601147
 C        -1.866248         2.804611         1.642499
 C        -1.395399         1.916281         0.446409
 C        -0.580495         0.918820         1.261590
 O         0.118371        -0.096475         0.618113
 C        -1.652789         0.394087         2.227249
 C        -2.011571         1.757224         2.702392
 C        -0.726288         2.757353         2.682403
 C         0.370018         1.905399         2.228965
 H        -2.766723         4.455753         0.813813
 H        -2.193820         1.328245        -0.044311
 H        -0.899877         2.551056        -0.325644
 H         0.098120         0.029573        -0.276102
 H        -2.482584         0.029213         1.688034
 H        -1.343180        -0.402295         2.908203
 H        -2.860270         1.815304         3.384723
 H        -0.391020         3.389301         3.455115
 H         1.241985         2.257153         1.660706
 H         0.766383         1.378483         3.052726
