19
Iteration:  4627charge 0 multiplicity 1
 O        -2.822777         3.692982         1.387367
 C        -1.904674         2.730153         1.654778
 C        -1.617032         1.823537         0.493922
 C        -0.573610         0.939253         1.314978
 O         0.001544         0.010498         0.424837
 C        -1.621266         0.446765         2.475996
 C        -1.811398         1.911091         3.022815
 C        -0.674824         2.833772         2.539849
 C         0.455732         1.898317         1.992834
 H        -2.565456         4.476735         1.888536
 H        -2.470515         1.194463         0.130185
 H        -1.295641         2.563274        -0.341774
 H         0.727303        -0.502223         0.966813
 H        -2.645716         0.152134         2.150803
 H        -1.223982        -0.268327         3.240804
 H        -2.548737         1.931261         3.857140
 H        -0.359252         3.750551         3.081470
 H         1.213551         2.395794         1.323791
 H         0.941716         1.452650         2.862346
