19
Iteration:  1272
 O        -2.774805         3.923739         1.344579
 C        -1.875532         2.737842         1.626654
 C        -1.365816         1.910927         0.543630
 C        -0.524958         0.896610         1.305964
 O        -0.036778         0.063456         0.343765
 C        -1.617095         0.413742         2.316906
 C        -1.909110         1.779561         2.882873
 C        -0.774923         2.768107         2.742925
 C         0.379046         1.824795         2.240775
 H        -3.674832         3.737558         1.689474
 H        -2.160071         1.444961        -0.118477
 H        -0.744869         2.571661        -0.121206
 H         0.458143        -0.638962         0.703935
 H        -2.423820        -0.069815         1.718676
 H        -1.242667        -0.290044         3.093390
 H        -2.661533         1.849669         3.699811
 H        -0.589898         3.374728         3.604919
 H         1.186982         2.405683         1.818546
 H         0.773397         1.251902         3.076254
