19
Iteration:   226
 O        -2.552373         4.133840         1.579774
 C        -1.973805         2.692900         1.649947
 C        -1.482710         1.929161         0.476577
 C        -0.547373         0.935061         1.301448
 O         0.237031         0.064916         0.511338
 C        -1.603678         0.316018         2.173712
 C        -2.042722         1.658050         2.811814
 C        -0.918335         2.620951         2.697852
 C         0.259011         1.860668         2.120398
 H        -3.489307         4.252232         1.283749
 H        -2.139912         1.395299        -0.266022
 H        -0.782144         2.591912        -0.064602
 H         0.309481        -0.751194         1.109898
 H        -2.297844        -0.162895         1.426089
 H        -1.256494        -0.402507         2.937887
 H        -2.865318         1.768121         3.549903
 H        -0.821685         3.438228         3.431710
 H         0.905699         2.642538         1.610560
 H         0.883873         1.305998         2.852698
