19
Iteration:   937charge 0 multiplicity 1
 O        -2.565393         3.959124         1.405767
 C        -1.955246         2.767780         1.693095
 C        -1.388528         2.038716         0.476667
 C        -0.525980         0.891252         1.308080
 O         0.216202        -0.066928         0.496794
 C        -1.654383         0.344690         2.290393
 C        -2.149986         1.703944         2.825415
 C        -0.864322         2.703058         2.737338
 C         0.250168         1.895412         2.182653
 H        -3.139342         4.289741         2.100654
 H        -1.998955         1.416804        -0.193880
 H        -0.762481         2.788571        -0.072205
 H         0.286966         0.274653        -0.366716
 H        -2.398133        -0.179528         1.637135
 H        -1.316786        -0.521899         2.811301
 H        -2.855053         1.783447         3.604711
 H        -0.717974         3.465947         3.493151
 H         0.923163         2.408575         1.556054
 H         0.708028         1.260885         2.935563
