19
Iteration:  3840charge 0 multiplicity 1
 O        -2.802500         3.816622         1.569207
 C        -1.904390         2.763978         1.647002
 C        -1.357190         2.085166         0.453585
 C        -0.571726         0.885319         1.256196
 O         0.015536        -0.195776         0.597938
 C        -1.615451         0.440230         2.315017
 C        -1.952891         1.732253         2.916011
 C        -0.804974         2.821498         2.615235
 C         0.346150         1.973629         1.994745
 H        -2.818170         4.073100         0.653436
 H        -2.138809         1.720635        -0.195538
 H        -0.536354         2.625198        -0.005940
 H         0.957682        -0.252030         0.982677
 H        -2.434778        -0.044778         1.759420
 H        -1.161560        -0.416260         2.846916
 H        -2.691507         1.882667         3.661611
 H        -0.694675         3.526207         3.443474
 H         0.948216         2.421528         1.181315
 H         1.150539         1.501491         2.742231
