19
Iteration:  3058
 O        -2.613285         4.005240         1.433960
 C        -1.885369         2.761935         1.649531
 C        -1.394188         1.895332         0.501356
 C        -0.491726         0.910194         1.304111
 O         0.009194        -0.006382         0.360434
 C        -1.521784         0.383753         2.350531
 C        -2.103871         1.729798         2.839233
 C        -0.929025         2.705043         2.706375
 C         0.318248         1.902753         2.255757
 H        -3.372257         3.749749         0.842628
 H        -2.270561         1.471392        -0.128263
 H        -0.681549         2.486994        -0.032474
 H         0.861621        -0.335592         0.599963
 H        -2.277262        -0.268765         1.961225
 H        -1.004789        -0.072425         3.173514
 H        -2.738802         1.691783         3.710781
 H        -0.859440         3.509876         3.450636
 H         1.008572         2.349860         1.507123
 H         0.766813         1.379061         3.026386
