19
Iteration:  4369charge 0 multiplicity 1
 O        -2.818853         3.785688         1.405548
 C        -1.908958         2.683831         1.626050
 C        -1.376142         1.930643         0.477878
 C        -0.565537         0.990934         1.268427
 O        -0.249017        -0.120052         0.447202
 C        -1.384797         0.526853         2.549686
 C        -1.837460         1.863446         2.983246
 C        -0.713570         2.798616         2.688708
 C         0.395218         1.950620         1.919945
 H        -3.672967         3.413193         1.159940
 H        -2.137593         1.384311        -0.066142
 H        -0.858059         2.568305        -0.185618
 H         0.222112        -0.931573         0.886762
 H        -2.100426        -0.280835         2.376358
 H        -0.760031         0.194930         3.419978
 H        -2.557923         2.062219         3.715053
 H        -0.682254         3.657448         3.358021
 H         0.888189         2.315332         1.082226
 H         1.107131         1.432618         2.546286
