19
Iteration:  1402charge 0 multiplicity 1
 O        -2.820744         3.787151         1.375674
 C        -1.866146         2.757134         1.769644
 C        -1.336038         2.049039         0.525179
 C        -0.515705         0.952936         1.195606
 O         0.076111        -0.089268         0.395960
 C        -1.605621         0.491165         2.325114
 C        -2.118025         1.817305         2.862805
 C        -0.714336         2.754189         2.733814
 C         0.379976         1.773973         2.267931
 H        -2.673803         4.189427         0.476486
 H        -2.332765         1.610144         0.065702
 H        -0.710644         2.851130         0.115204
 H        -0.650155        -0.175463        -0.361405
 H        -2.388759        -0.175760         1.978730
 H        -1.188184        -0.075140         3.191156
 H        -2.614476         1.876156         3.800553
 H        -0.614796         3.527984         3.476116
 H         1.279840         2.264026         1.724519
 H         0.794590         1.189463         3.133508
