19
Iteration:  1888charge 0 multiplicity 1
 O        -2.721540         3.921861         1.632067
 C        -1.893915         2.740077         1.635548
 C        -1.418961         1.974259         0.420196
 C        -0.609186         0.876261         1.345672
 O         0.123446        -0.123860         0.634774
 C        -1.653775         0.418700         2.291751
 C        -2.000274         1.778099         2.792328
 C        -0.771930         2.683663         2.629378
 C         0.343368         1.974321         2.042132
 H        -3.327231         4.001117         0.843155
 H        -2.109663         1.359540        -0.096584
 H        -0.789218         2.495758        -0.362535
 H         0.652357         0.324489        -0.103386
 H        -2.477509        -0.196459         1.742316
 H        -1.159531        -0.098043         3.118790
 H        -2.803809         1.982129         3.473819
 H        -0.612684         3.459589         3.351640
 H         0.853851         2.457429         1.188394
 H         1.074338         1.498952         2.817492
