19
Iteration:  1264
 O        -2.761882         3.864577         1.389617
 C        -1.918876         2.836192         1.672440
 C        -1.389705         2.012660         0.519847
 C        -0.549102         0.929675         1.309131
 O        -0.003619         0.030319         0.407195
 C        -1.577332         0.403642         2.288616
 C        -1.909695         1.747994         2.794982
 C        -0.753832         2.774650         2.697316
 C         0.375623         1.799553         2.233297
 H        -3.670914         3.545260         1.473933
 H        -2.166443         1.532969         0.073224
 H        -0.709299         2.472722        -0.192192
 H         0.210233        -0.791019         0.745197
 H        -2.442433        -0.136094         1.779933
 H        -1.348736        -0.192228         3.157782
 H        -2.457266         1.811391         3.707642
 H        -0.758232         3.400370         3.586612
 H         1.221812         2.118453         1.637854
 H         0.722079         1.281748         3.190677
