19
Iteration:  4704
 O        -2.790167         3.911058         1.412684
 C        -1.993663         2.712041         1.693879
 C        -1.556104         1.774551         0.520356
 C        -0.544796         0.898292         1.311519
 O         0.058165        -0.083069         0.424711
 C        -1.501378         0.449069         2.481723
 C        -1.911930         1.868778         2.971113
 C        -0.745844         2.747565         2.553135
 C         0.414145         1.999718         1.950610
 H        -2.508291         4.563368         2.049667
 H        -2.404363         1.145334         0.139814
 H        -1.040514         2.356429        -0.281406
 H         0.245764        -0.768609         1.016840
 H        -2.375466        -0.016674         1.980780
 H        -1.118717        -0.293962         3.234689
 H        -2.666684         1.967523         3.780298
 H        -0.748266         3.666739         3.125360
 H         0.982951         2.598076         1.224798
 H         1.092682         1.535038         2.642368
