19
Iteration:  2947
 O        -2.611482         3.892337         1.425431
 C        -1.889782         2.776598         1.647204
 C        -1.386164         2.017262         0.490871
 C        -0.582820         0.957945         1.291557
 O         0.048708         0.007714         0.414279
 C        -1.587944         0.399941         2.376732
 C        -2.088680         1.693706         2.812809
 C        -0.828840         2.704754         2.698843
 C         0.321253         1.891427         2.188474
 H        -3.466923         3.515736         1.221981
 H        -2.313793         1.587828        -0.128640
 H        -0.740889         2.594581        -0.152345
 H         0.615627        -0.668621         0.910081
 H        -2.393227        -0.272742         2.074246
 H        -0.943237        -0.097914         3.156068
 H        -2.833220         1.770791         3.636019
 H        -0.656087         3.528851         3.389948
 H         1.088050         2.441378         1.561505
 H         0.840387         1.309366         2.919760
