19
Iteration:  4240
 O        -2.832749         3.708445         1.380287
 C        -1.794478         2.777040         1.687070
 C        -1.479845         1.972015         0.478468
 C        -0.616632         0.897497         1.263995
 O        -0.154190        -0.202286         0.563363
 C        -1.420199         0.519893         2.499516
 C        -1.930465         1.892743         2.847052
 C        -0.674641         2.825230         2.620112
 C         0.387707         1.948250         1.984540
 H        -3.349965         3.833124         2.199308
 H        -2.438996         1.593390         0.074645
 H        -0.771878         2.401633        -0.214826
 H         0.199232         0.090696        -0.256084
 H        -2.077112        -0.359031         2.271231
 H        -0.662113         0.254122         3.216940
 H        -2.633179         1.934536         3.692073
 H        -0.597614         3.705320         3.253625
 H         1.219163         2.479622         1.411637
 H         0.912152         1.368638         2.788496
