19
Iteration:  3933charge 0 multiplicity 1
 O        -2.789090         3.854418         1.399332
 C        -2.042946         2.735047         1.709059
 C        -1.416486         2.058784         0.421694
 C        -0.600045         0.955794         1.242113
 O         0.103551        -0.136740         0.573550
 C        -1.481096         0.434996         2.334558
 C        -1.989375         1.776847         2.872248
 C        -0.736958         2.707517         2.671296
 C         0.347701         1.919516         2.017853
 H        -2.874339         4.475416         2.181302
 H        -2.207822         1.535510        -0.187860
 H        -0.737867         2.746443        -0.087874
 H         0.032117        -0.930424         1.090421
 H        -2.384849        -0.200891         2.069589
 H        -1.016500        -0.097544         3.284970
 H        -2.627431         1.794245         3.771578
 H        -0.469873         3.591797         3.290221
 H         0.870291         2.687514         1.324884
 H         1.086777         1.251971         2.569592
