19
Iteration:  3869charge 0 multiplicity 1
 O        -2.785773         3.865485         1.502096
 C        -1.942147         2.752572         1.616523
 C        -1.432178         1.903298         0.425760
 C        -0.564219         0.939774         1.244980
 O         0.046373        -0.023779         0.441149
 C        -1.557190         0.509769         2.440747
 C        -2.035119         1.807136         2.882540
 C        -0.759761         2.710823         2.703279
 C         0.346645         1.832389         2.129903
 H        -2.520977         4.367917         0.708992
 H        -2.211702         1.229369        -0.022205
 H        -0.917254         2.330753        -0.457861
 H         0.860835        -0.204199         0.820818
 H        -2.267598        -0.253868         2.078843
 H        -0.965088        -0.040494         3.145207
 H        -2.711400         1.898655         3.777639
 H        -0.509744         3.572243         3.375233
 H         1.113342         2.344408         1.570686
 H         0.950157         1.222268         2.695661
