19
Iteration:  3341
 O        -2.632208         3.875196         1.564369
 C        -1.939814         2.756706         1.663597
 C        -1.502021         2.054746         0.394281
 C        -0.546853         1.009654         1.176595
 O         0.093560        -0.197451         0.662438
 C        -1.492937         0.488860         2.257089
 C        -1.997045         1.700131         2.839748
 C        -0.911426         2.803759         2.667193
 C         0.342400         1.860125         2.128193
 H        -3.524284         3.680273         1.162010
 H        -2.183728         1.610043        -0.330550
 H        -0.834187         2.596656        -0.227825
 H         0.597281         0.005763        -0.108696
 H        -2.296161        -0.134751         1.717902
 H        -1.053503        -0.309486         2.938582
 H        -2.674672         1.795241         3.715266
 H        -0.987754         3.581888         3.455163
 H         1.094127         2.389378         1.687165
 H         0.732829         1.254346         2.960738
