19
Iteration:  3606
 O        -2.663824         3.885714         1.608890
 C        -1.874718         2.724510         1.591171
 C        -1.481279         1.923972         0.410904
 C        -0.590236         0.892611         1.294732
 O         0.133506        -0.064582         0.525935
 C        -1.606010         0.396893         2.403791
 C        -2.020249         1.854976         2.846901
 C        -0.835810         2.744232         2.607633
 C         0.302231         1.892791         2.090746
 H        -3.389888         3.646338         0.980230
 H        -2.376397         1.417199         0.006887
 H        -0.804076         2.377721        -0.232605
 H         0.907176         0.368480         0.228470
 H        -2.505123        -0.128742         2.024245
 H        -1.083126        -0.190056         3.146993
 H        -2.827389         2.218207         3.516190
 H        -0.439003         3.670463         3.046191
 H         0.990923         2.319309         1.402115
 H         0.960256         1.401854         2.890917
