19
Iteration:  1214charge 0 multiplicity 1
 O        -2.674754         3.979014         1.721157
 C        -1.899102         2.777110         1.607865
 C        -1.388685         1.946911         0.433611
 C        -0.545740         0.921500         1.263187
 O         0.190819        -0.100838         0.677877
 C        -1.660507         0.333838         2.230612
 C        -2.074434         1.726486         2.785022
 C        -0.818825         2.736182         2.593896
 C         0.306672         1.964621         2.042968
 H        -3.330083         4.020921         1.012393
 H        -2.269607         1.407500        -0.177779
 H        -0.713740         2.580839        -0.171488
 H        -0.319888        -0.667437        -0.005942
 H        -2.343788        -0.256861         1.639570
 H        -1.211502        -0.402707         2.969468
 H        -2.646784         1.986849         3.679457
 H        -0.673862         3.589164         3.292610
 H         0.855837         2.592861         1.281449
 H         1.047250         1.622251         2.736415
