19
Iteration:  3849charge 0 multiplicity 1
 O        -2.735191         3.789164         1.535480
 C        -1.941216         2.718574         1.708133
 C        -1.431120         2.067164         0.482398
 C        -0.608274         0.903417         1.246355
 O         0.025420        -0.134203         0.577960
 C        -1.526265         0.399608         2.306875
 C        -1.961103         1.823440         2.894181
 C        -0.820397         2.749873         2.615406
 C         0.336139         1.928300         2.009055
 H        -2.698985         4.083082         0.641300
 H        -1.987449         1.901631        -0.420987
 H        -0.736780         2.778810         0.059570
 H         0.967213        -0.321972         0.910787
 H        -2.459177        -0.058568         2.004152
 H        -1.107697        -0.189753         3.016833
 H        -2.788805         2.148702         3.543148
 H        -0.766482         3.683318         3.238745
 H         1.030214         2.389910         1.359569
 H         0.996717         1.412077         2.799063
