19
Iteration:  2232
 O        -2.733218         3.995406         1.538196
 C        -1.892031         2.827816         1.650730
 C        -1.589908         1.859917         0.467974
 C        -0.529859         0.887132         1.292918
 O         0.195457        -0.092491         0.623980
 C        -1.590823         0.365673         2.332569
 C        -1.924162         1.778592         2.797060
 C        -0.801415         2.674779         2.652874
 C         0.380470         1.984314         2.052413
 H        -3.658422         3.826223         1.237963
 H        -2.492869         1.315262         0.052656
 H        -1.097378         2.354435        -0.369362
 H        -0.208171        -0.191629        -0.191451
 H        -2.305148        -0.176974         1.729944
 H        -1.178109        -0.372044         3.095339
 H        -2.702414         1.884246         3.557339
 H        -0.699483         3.565837         3.246447
 H         0.975868         2.619769         1.354956
 H         1.030801         1.594277         2.853774
