19
Iteration:  4865charge 0 multiplicity 1
 O        -2.669641         3.843256         1.420193
 C        -1.996305         2.663851         1.620009
 C        -1.508026         1.727631         0.475001
 C        -0.530318         0.940462         1.345910
 O        -0.038573         0.000803         0.350666
 C        -1.429863         0.506824         2.524295
 C        -2.022836         1.830951         2.949375
 C        -0.780355         2.735063         2.650993
 C         0.325218         2.000391         2.017880
 H        -2.113571         4.500888         1.892753
 H        -2.312098         1.083281         0.195984
 H        -1.024556         2.065178        -0.426087
 H         0.490635        -0.637702         0.866935
 H        -2.286974        -0.214989         2.208966
 H        -0.864366         0.055282         3.285859
 H        -2.808342         1.991024         3.689455
 H        -0.593725         3.648268         3.137749
 H         0.641803         2.819837         1.228988
 H         1.179038         1.721459         2.683705
