19
Iteration:  1461
 O        -2.730959         3.989766         1.703289
 C        -1.953865         2.749876         1.578928
 C        -1.481536         1.941116         0.423180
 C        -0.519125         0.913721         1.173212
 O         0.318974        -0.134957         0.623343
 C        -1.594633         0.433207         2.325359
 C        -2.132436         1.844238         2.711533
 C        -0.813209         2.674889         2.704373
 C         0.262556         1.814151         2.014725
 H        -2.055315         4.655555         1.841405
 H        -2.200138         1.584776        -0.270696
 H        -0.933489         2.629014        -0.301786
 H        -0.243293        -0.950788         0.606383
 H        -2.413169        -0.138542         1.810928
 H        -1.182195        -0.043868         3.200370
 H        -2.956513         2.160106         3.431093
 H        -0.680421         3.616601         3.237628
 H         0.826937         2.419552         1.407010
 H         0.896132         1.334313         2.751088
