19
Iteration:   953charge 0 multiplicity 1
 O        -2.645837         3.983867         1.515671
 C        -1.854495         2.818261         1.672000
 C        -1.444494         2.026317         0.448682
 C        -0.548931         0.934078         1.232388
 O         0.275439        -0.138240         0.630100
 C        -1.654030         0.411457         2.162363
 C        -2.103602         1.764400         2.707797
 C        -0.882006         2.612069         2.776900
 C         0.288313         1.816597         2.153642
 H        -3.447423         3.839571         2.090269
 H        -2.452272         1.767374         0.115606
 H        -0.920423         2.612046        -0.307614
 H         0.305812         0.042371        -0.349019
 H        -2.455356        -0.164149         1.696765
 H        -1.306296        -0.074041         3.128241
 H        -2.887161         1.888298         3.513082
 H        -0.773661         3.390778         3.541865
 H         0.966865         2.566364         1.592082
 H         0.975041         1.401088         2.912148
