19
Iteration:   651
 O        -2.630853         3.823010         1.453585
 C        -1.940451         2.729914         1.692635
 C        -1.260617         2.124569         0.470104
 C        -0.579036         0.986268         1.277672
 O         0.129299         0.024568         0.307038
 C        -1.619868         0.367591         2.185641
 C        -2.147202         1.765611         2.787057
 C        -0.946214         2.625816         2.859142
 C         0.232780         1.763654         2.416575
 H        -2.180454         4.440208         0.785981
 H        -2.034671         1.776767        -0.216367
 H        -0.579437         2.782763        -0.026389
 H         1.100629         0.397119         0.247981
 H        -2.545164        -0.222696         1.897523
 H        -1.235349        -0.276845         2.964685
 H        -2.861219         1.718678         3.574537
 H        -0.621140         3.463223         3.456122
 H         0.978918         2.480533         2.009592
 H         0.796125         0.914408         2.977605
