19
Iteration:  2835charge 0 multiplicity 1
 O        -2.716803         3.833671         1.492919
 C        -1.814644         2.728786         1.645602
 C        -1.321471         1.975188         0.495686
 C        -0.545582         0.957574         1.338926
 O        -0.000773        -0.028445         0.469595
 C        -1.668471         0.446632         2.276911
 C        -2.021205         1.786698         2.840137
 C        -0.799291         2.755517         2.644217
 C         0.378123         1.909072         2.166014
 H        -3.577227         3.342181         1.526661
 H        -2.125231         1.383646        -0.080499
 H        -0.783831         2.514383        -0.349567
 H         0.597046        -0.569140         0.917367
 H        -2.542686         0.049162         1.694007
 H        -1.269671        -0.324144         2.992591
 H        -2.857031         1.962125         3.517207
 H        -0.813843         3.691437         3.201118
 H         1.075699         2.447423         1.544713
 H         0.966488         1.313259         2.855359
