19
Iteration:  3977
 O        -2.795990         3.809795         1.496042
 C        -1.891444         2.701972         1.604468
 C        -1.420612         1.847396         0.379263
 C        -0.528095         0.942841         1.268887
 O         0.052569        -0.018491         0.480977
 C        -1.619891         0.536149         2.357139
 C        -1.964369         1.861133         2.887065
 C        -0.730700         2.804157         2.682140
 C         0.428630         1.880430         2.150293
 H        -3.514660         3.590966         2.158089
 H        -2.210327         1.183062        -0.075580
 H        -0.953547         2.484698        -0.382126
 H        -0.134846        -0.889522         0.803984
 H        -2.495176         0.020610         1.877604
 H        -1.093264        -0.095443         3.199690
 H        -2.704192         2.129932         3.594479
 H        -0.588942         3.801342         3.131557
 H         1.047960         2.285044         1.263649
 H         0.939768         1.346547         2.949690
