19
Iteration:  4525
 O        -3.052934         3.759611         1.562819
 C        -1.917610         2.844816         1.670164
 C        -1.530828         1.866324         0.481195
 C        -0.588432         0.869841         1.324896
 O         0.100578        -0.075207         0.459226
 C        -1.607915         0.602117         2.455976
 C        -1.809859         1.939385         2.861055
 C        -0.578492         2.741502         2.589840
 C         0.437324         1.790627         1.947454
 H        -3.066451         4.045954         0.599673
 H        -2.391868         1.424052        -0.021105
 H        -0.932304         2.334856        -0.316097
 H         0.480990        -0.773699         0.920215
 H        -2.529945        -0.007558         2.168075
 H        -1.074590         0.187809         3.315408
 H        -2.382429         2.372125         3.707109
 H        -0.220038         3.494435         3.272319
 H         1.276450         2.215654         1.379029
 H         0.892407         1.300797         2.765880
