19
Iteration:  4308
 O        -2.774510         3.910827         1.603033
 C        -1.836441         2.757779         1.639075
 C        -1.729912         1.783816         0.465615
 C        -0.680490         0.849889         1.263572
 O         0.204780        -0.044844         0.538097
 C        -1.572243         0.552684         2.521733
 C        -1.877162         1.889393         2.904441
 C        -0.649295         2.698751         2.556509
 C         0.316515         1.846222         1.828351
 H        -3.299582         3.929779         0.811519
 H        -2.702167         1.329518         0.133282
 H        -1.294507         2.475203        -0.332199
 H         0.776243        -0.186334         1.412916
 H        -2.396290        -0.154515         2.206835
 H        -1.012686         0.200123         3.383516
 H        -2.538581         2.152459         3.688130
 H        -0.367798         3.650662         3.000234
 H         0.924626         2.324136         0.946019
 H         1.051618         1.280906         2.452679
