19
Iteration:  2584charge 0 multiplicity 1
 O        -2.719395         3.816959         1.428763
 C        -1.861455         2.804143         1.674065
 C        -1.426050         2.022308         0.480767
 C        -0.607705         0.921642         1.236276
 O         0.205973        -0.034529         0.501864
 C        -1.605781         0.484500         2.314930
 C        -2.052429         1.873004         2.840059
 C        -0.780780         2.691994         2.733075
 C         0.330595         1.793369         2.095065
 H        -3.537900         3.527011         1.791794
 H        -2.322048         1.501879        -0.036216
 H        -0.878874         2.652722        -0.244747
 H        -0.321580        -0.879131         0.686278
 H        -2.515202        -0.086221         2.130740
 H        -1.021424        -0.155123         3.121007
 H        -2.788025         2.215718         3.560264
 H        -0.708056         3.511120         3.479186
 H         1.071824         2.297574         1.366518
 H         0.965439         1.211377         2.866589
