19
Iteration:   588
 O        -2.759157         3.839507         1.680392
 C        -1.875292         2.771923         1.641973
 C        -1.284089         2.186678         0.371807
 C        -0.535543         1.049004         1.118813
 O         0.215336        -0.177796         0.695437
 C        -1.714019         0.399574         2.095965
 C        -2.170833         1.725957         2.719361
 C        -0.902084         2.664701         2.771662
 C         0.289109         1.791883         2.228752
 H        -2.088700         4.561367         1.621880
 H        -2.105872         1.826957        -0.390819
 H        -0.473401         2.788685        -0.189513
 H         0.904282         0.227867         0.043928
 H        -2.359795        -0.005828         1.260064
 H        -1.230525        -0.426743         2.614472
 H        -2.949927         1.728105         3.460545
 H        -0.687518         3.453385         3.496188
 H         1.042140         2.534599         1.881780
 H         0.629891         1.039527         2.931124
