19
Iteration:  1208charge 0 multiplicity 1
 O        -2.633926         3.990271         1.681426
 C        -1.936590         2.795155         1.677917
 C        -1.442492         1.934986         0.485621
 C        -0.520024         0.903886         1.248036
 O         0.183875        -0.082826         0.693456
 C        -1.650538         0.312057         2.219741
 C        -2.056273         1.704877         2.785306
 C        -0.846534         2.743952         2.555616
 C         0.340377         1.957108         2.026094
 H        -3.441461         4.108333         1.112660
 H        -2.170490         1.503360        -0.077475
 H        -0.821854         2.483917        -0.237840
 H        -0.210298        -0.459720        -0.157153
 H        -2.294072        -0.342389         1.547612
 H        -1.282295        -0.211941         3.089977
 H        -2.908520         1.909232         3.478907
 H        -0.638669         3.575300         3.197390
 H         0.974682         2.538320         1.369151
 H         1.023750         1.555304         2.825672
