19
Iteration:  4436charge 0 multiplicity 1
 O        -2.727739         3.843365         1.537853
 C        -1.948847         2.713471         1.656807
 C        -1.608640         1.802729         0.446680
 C        -0.630304         0.940823         1.269098
 O         0.124449        -0.090474         0.552467
 C        -1.606348         0.407863         2.492676
 C        -1.912678         1.886848         2.913392
 C        -0.753732         2.865699         2.533431
 C         0.366310         1.920236         1.833603
 H        -2.408492         4.471192         2.249374
 H        -2.369839         1.167234        -0.012160
 H        -1.105226         2.326436        -0.339197
 H         0.717290        -0.450086         1.160554
 H        -2.494772        -0.228301         2.242536
 H        -0.884641        -0.098910         3.144789
 H        -2.505537         2.111318         3.811989
 H        -0.493180         3.803078         3.095889
 H         0.947000         2.361977         1.043950
 H         1.048058         1.436879         2.512241
