19
Iteration:  2607
 O        -2.688676         4.028563         1.549945
 C        -1.965364         2.815730         1.658061
 C        -1.486079         1.837645         0.441916
 C        -0.519751         0.885341         1.277660
 O         0.180310        -0.036842         0.543495
 C        -1.663146         0.383558         2.217901
 C        -1.964061         1.744548         2.858961
 C        -0.769069         2.775242         2.610882
 C         0.325311         1.915336         2.154187
 H        -3.625946         3.697128         1.404221
 H        -2.178480         1.143643        -0.155741
 H        -0.871727         2.472451        -0.332817
 H        -0.089990        -0.976015         0.775734
 H        -2.524080        -0.100398         1.707641
 H        -1.287052        -0.396587         2.994338
 H        -2.548129         1.901955         3.798472
 H        -0.545366         3.659566         3.245097
 H         1.142622         2.455861         1.519093
 H         0.851458         1.400279         3.024056
