19
Iteration:  1997
 O        -2.773843         3.868651         1.661071
 C        -1.877189         2.751863         1.589996
 C        -1.450550         1.990710         0.380281
 C        -0.608023         0.941047         1.135267
 O         0.172127        -0.066444         0.790594
 C        -1.512724         0.483722         2.216115
 C        -2.019079         1.801216         2.789402
 C        -0.730228         2.760369         2.579515
 C         0.316743         1.840503         2.104771
 H        -3.624726         3.538797         1.975666
 H        -2.276091         1.507314        -0.187171
 H        -1.022087         2.594613        -0.487547
 H        -0.124875        -0.615817        -0.051474
 H        -2.446139        -0.180463         1.979661
 H        -0.896815        -0.108619         2.907306
 H        -2.900413         2.030110         3.447756
 H        -0.609149         3.485516         3.405062
 H         1.054834         2.370817         1.487573
 H         0.730760         1.117267         2.872036
