19
Iteration:  2957charge 0 multiplicity 1
 O        -2.661495         3.886007         1.469391
 C        -1.876854         2.717676         1.675535
 C        -1.403884         2.053219         0.399405
 C        -0.610320         0.982341         1.257294
 O         0.021101        -0.006649         0.519726
 C        -1.498995         0.400197         2.346126
 C        -2.049748         1.765771         2.845024
 C        -0.800423         2.706245         2.672190
 C         0.294297         1.818904         2.155554
 H        -3.563668         3.708987         1.236584
 H        -2.003704         1.644074        -0.550503
 H        -0.690349         2.774893        -0.112280
 H         0.549702        -0.610942         1.071577
 H        -2.123801        -0.248450         1.743665
 H        -0.968543        -0.243804         3.020696
 H        -2.836891         1.853488         3.630720
 H        -0.905319         3.542837         3.353344
 H         1.150464         2.305433         1.692560
 H         0.664427         1.278777         2.981961
