19
Iteration:  2797charge 0 multiplicity 1
 O        -2.683783         3.950158         1.404685
 C        -1.881962         2.833613         1.684960
 C        -1.470821         1.961388         0.591661
 C        -0.588290         0.901125         1.273748
 O         0.190042         0.020044         0.419521
 C        -1.575896         0.397219         2.375120
 C        -2.093845         1.762093         2.822911
 C        -0.834376         2.731742         2.692974
 C         0.327839         1.768866         2.098790
 H        -3.446585         3.710153         0.882942
 H        -2.356947         1.515569         0.166116
 H        -0.877386         2.647860        -0.103998
 H         0.378696        -0.785926         0.950477
 H        -2.249757        -0.425235         2.143335
 H        -1.025101        -0.106584         3.168406
 H        -2.778748         1.956337         3.650170
 H        -0.647601         3.653150         3.276463
 H         1.109426         2.180416         1.380527
 H         0.881155         1.269871         2.919041
