19
Iteration:  3076charge 0 multiplicity 1
 O        -2.648667         3.884180         1.505466
 C        -1.837095         2.730533         1.610860
 C        -1.347401         1.941222         0.451821
 C        -0.590382         0.975805         1.319749
 O         0.003781         0.043612         0.468853
 C        -1.643074         0.358406         2.350569
 C        -2.051336         1.781201         2.743157
 C        -0.824769         2.630885         2.820372
 C         0.352556         1.941252         2.124423
 H        -3.280434         3.674236         0.757127
 H        -2.126192         1.314537         0.105664
 H        -0.789409         2.336222        -0.429033
 H         0.824943        -0.181369         0.919201
 H        -2.378334        -0.188066         1.707403
 H        -1.268703        -0.281699         3.193752
 H        -2.956037         2.111850         3.326664
 H        -0.587126         3.409457         3.539008
 H         0.798299         2.693977         1.470854
 H         1.053867         1.360813         2.880583
