19
Iteration:  1975charge 0 multiplicity 1
 O        -2.784792         3.933408         1.530291
 C        -1.965294         2.727625         1.652559
 C        -1.403950         2.013001         0.433431
 C        -0.554739         0.927525         1.261168
 O         0.245350        -0.157810         0.560966
 C        -1.590432         0.436457         2.327704
 C        -1.981801         1.803769         2.840376
 C        -0.770316         2.738595         2.646507
 C         0.326136         1.922317         2.066238
 H        -3.610592         3.649946         1.987852
 H        -2.158735         1.663135        -0.296166
 H        -0.826538         2.658474        -0.302636
 H        -0.408890        -0.782525         0.416266
 H        -2.421939        -0.031106         1.661445
 H        -1.298299        -0.238766         3.147357
 H        -2.669041         1.965368         3.702834
 H        -0.786559         3.570100         3.393152
 H         0.986963         2.485287         1.390396
 H         0.797612         1.223654         2.813947
