19
Iteration:  2419charge 0 multiplicity 1
 O        -2.869876         3.870078         1.414513
 C        -1.889108         2.827372         1.698632
 C        -1.411556         1.902744         0.407211
 C        -0.558331         0.903813         1.290452
 O         0.138465        -0.123784         0.516918
 C        -1.594173         0.485871         2.390055
 C        -1.988473         1.872322         2.905294
 C        -0.704943         2.745086         2.659915
 C         0.377135         1.859539         2.126588
 H        -3.623448         3.286230         1.728244
 H        -2.203354         1.738493        -0.453867
 H        -0.712814         2.640173        -0.141514
 H        -0.196700        -0.235061        -0.375961
 H        -2.307291        -0.162249         1.976057
 H        -1.193540        -0.055974         3.256310
 H        -2.427914         2.051738         3.927218
 H        -0.658248         3.519747         3.429402
 H         1.024208         2.337700         1.431504
 H         0.913228         1.180742         2.693063
