19
Iteration:  4608
 O        -2.780991         3.817056         1.360113
 C        -1.873504         2.776634         1.672984
 C        -1.647322         1.769311         0.518485
 C        -0.686222         0.884953         1.256301
 O         0.061013         0.044919         0.420054
 C        -1.417368         0.460570         2.522626
 C        -1.861080         1.851512         2.919396
 C        -0.715096         2.808835         2.638420
 C         0.272054         1.866961         1.998237
 H        -2.487290         4.591487         1.821189
 H        -2.642573         1.271190         0.282457
 H        -1.073625         2.096163        -0.371982
 H         0.491927        -0.546351         1.086800
 H        -2.205040        -0.210403         2.302939
 H        -0.684033        -0.079633         3.176190
 H        -2.421453         2.293738         3.790498
 H        -0.460111         3.647328         3.282225
 H         0.885776         2.350265         1.249661
 H         0.924816         1.172254         2.675942
