19
Iteration:  3027charge 0 multiplicity 1
 O        -2.604891         3.925459         1.431087
 C        -1.919238         2.718418         1.645234
 C        -1.445749         1.951254         0.409169
 C        -0.559776         0.974462         1.225336
 O         0.132845         0.033731         0.470242
 C        -1.597412         0.431620         2.325238
 C        -2.063088         1.776668         2.907408
 C        -0.865154         2.657472         2.712955
 C         0.301717         1.842570         2.183408
 H        -3.539510         3.697165         1.521655
 H        -2.235487         1.640714        -0.351501
 H        -0.820196         2.643535        -0.195470
 H         0.565808        -0.657465         1.066605
 H        -2.434288        -0.156980         1.888830
 H        -1.094981        -0.267603         3.146310
 H        -2.662949         1.931887         3.791638
 H        -0.685762         3.480497         3.418841
 H         1.119970         2.362794         1.532722
 H         0.803736         1.158538         2.955606
