19
Iteration:    52charge 0 multiplicity 1
 O        -2.845795         3.833793         1.457843
 C        -1.861767         2.859929         1.696366
 C        -1.360365         2.000450         0.556754
 C        -0.602097         0.930198         1.319776
 O         0.072744        -0.029964         0.498611
 C        -1.571946         0.357942         2.246063
 C        -1.974262         1.775020         2.770390
 C        -0.737071         2.729640         2.729612
 C         0.371128         1.922039         2.155766
 H        -3.649325         3.242387         1.566426
 H        -2.195686         1.750415        -0.135756
 H        -0.464747         2.408187         0.063667
 H        -0.438642        -0.199391        -0.333869
 H        -2.318167        -0.369586         1.760714
 H        -1.031013        -0.356085         2.851887
 H        -2.690717         1.951312         3.568055
 H        -0.499636         3.481806         3.488719
 H         1.159341         2.325868         1.416873
 H         1.009638         1.409896         2.867275
