19
Iteration:  2566charge 0 multiplicity 1
 O        -2.797882         3.830820         1.400891
 C        -1.836161         2.758415         1.627363
 C        -1.303234         1.981627         0.385012
 C        -0.635267         0.932467         1.294888
 O         0.069436         0.011960         0.538910
 C        -1.578397         0.466237         2.400694
 C        -2.006507         1.818016         2.816294
 C        -0.710447         2.689524         2.766125
 C         0.305301         1.854584         2.098926
 H        -3.610276         3.627508         1.831330
 H        -2.170112         1.663479        -0.155946
 H        -0.366914         2.525521        -0.094108
 H        -0.638955        -0.636667         0.179248
 H        -2.238035        -0.297943         1.970261
 H        -1.192091        -0.112235         3.235282
 H        -2.794128         1.893724         3.620035
 H        -0.406151         3.486568         3.453057
 H         1.043578         2.517208         1.660026
 H         0.883730         1.245294         2.697076
