19
Iteration:  3646charge 0 multiplicity 1
 O        -2.747805         3.848120         1.436280
 C        -1.929727         2.774320         1.698846
 C        -1.501339         2.023746         0.537028
 C        -0.503550         1.007563         1.251522
 O         0.035677        -0.171486         0.590758
 C        -1.530702         0.446349         2.324577
 C        -2.032475         1.790809         2.841285
 C        -0.754576         2.658084         2.703407
 C         0.404106         1.890477         2.105294
 H        -2.746949         4.058503         0.503591
 H        -2.329986         1.353890         0.131717
 H        -1.131909         2.770618        -0.289563
 H         0.083938         0.025261        -0.411882
 H        -2.168062        -0.268426         1.850243
 H        -0.927154        -0.169188         3.034426
 H        -2.856169         1.960560         3.593244
 H        -0.782590         3.552976         3.328226
 H         0.978615         2.733242         1.542503
 H         1.127484         1.454189         2.863237
