19
Iteration:  3665
 O        -2.808242         3.724849         1.496435
 C        -1.818149         2.804995         1.668213
 C        -1.447563         1.873548         0.418808
 C        -0.581864         0.995089         1.243890
 O         0.004964        -0.123443         0.570914
 C        -1.518859         0.515439         2.296292
 C        -1.982283         1.835144         2.796920
 C        -0.754583         2.765375         2.831043
 C         0.357598         1.923301         2.127345
 H        -2.407584         4.306194         0.846810
 H        -2.349993         1.563556        -0.024839
 H        -0.988725         2.302950        -0.469288
 H         0.092257         0.001406        -0.384191
 H        -2.358885        -0.097854         1.875554
 H        -1.010252        -0.178668         3.060529
 H        -2.777491         1.945931         3.546497
 H        -0.595905         3.536795         3.574530
 H         1.067441         2.526225         1.587472
 H         0.801104         1.310878         2.839505
