19
Iteration:  3853charge 0 multiplicity 1
 O        -2.734628         3.802985         1.526882
 C        -1.955702         2.684035         1.709607
 C        -1.436942         2.030197         0.465567
 C        -0.613260         0.949538         1.248815
 O         0.036875        -0.116546         0.550400
 C        -1.526826         0.399597         2.324626
 C        -1.975918         1.853687         2.868486
 C        -0.782188         2.726143         2.652081
 C         0.322488         1.892754         2.027130
 H        -2.642531         4.112681         0.587363
 H        -2.088692         1.826786        -0.402459
 H        -0.763232         2.851142         0.078058
 H         0.892800        -0.274761         0.889670
 H        -2.452754        -0.101071         2.003814
 H        -0.960203        -0.109037         3.224140
 H        -2.729913         2.114076         3.566404
 H        -0.688914         3.694591         3.095034
 H         1.009189         2.518738         1.363115
 H         0.874230         1.342952         2.916929
