19
Iteration:  3921
 O        -2.747402         3.846325         1.395508
 C        -1.984063         2.663942         1.631564
 C        -1.484794         1.910717         0.479344
 C        -0.578605         0.958439         1.237258
 O         0.114179        -0.001667         0.510849
 C        -1.568050         0.479933         2.397692
 C        -1.923454         1.828343         2.932928
 C        -0.794196         2.666344         2.683019
 C         0.304011         1.910821         2.027837
 H        -2.540912         4.433662         2.123298
 H        -2.075382         1.519469        -0.372829
 H        -0.847976         2.629295        -0.069824
 H         0.080453        -0.802425         1.041791
 H        -2.380703        -0.065130         1.849044
 H        -0.916842        -0.262587         3.076228
 H        -2.576886         2.075106         3.812923
 H        -0.621508         3.557917         3.303879
 H         1.083288         2.473645         1.356011
 H         0.946678         1.304773         2.802572
