19
Iteration:  1376
 O        -2.829714         3.836322         1.578328
 C        -1.806950         2.796678         1.600992
 C        -1.282186         2.011013         0.417931
 C        -0.604801         0.923248         1.292011
 O         0.052038        -0.049819         0.572782
 C        -1.595769         0.448547         2.328008
 C        -1.988904         1.783533         2.776859
 C        -0.794264         2.680738         2.716718
 C         0.322495         1.799110         2.166794
 H        -2.903573         4.441282         0.782866
 H        -2.062408         1.505438        -0.139066
 H        -0.478225         2.496447        -0.134721
 H        -0.104299         0.188131        -0.424976
 H        -2.547096         0.059140         1.899596
 H        -1.166053        -0.321398         3.031227
 H        -3.003648         1.847339         3.258252
 H        -0.546375         3.437908         3.478070
 H         0.905610         2.357029         1.366795
 H         1.027367         1.485627         2.996322
