19
Iteration:   342charge 0 multiplicity 1
 O        -2.665414         3.899079         1.604038
 C        -1.889804         2.748265         1.617991
 C        -1.304079         2.124462         0.444342
 C        -0.584960         0.994210         1.270328
 O         0.142972        -0.072291         0.690277
 C        -1.705116         0.387089         2.114498
 C        -2.132646         1.720396         2.625127
 C        -0.821919         2.632444         2.744752
 C         0.337155         1.855328         2.189821
 H        -3.537973         3.579830         1.986944
 H        -2.080364         1.857138        -0.278814
 H        -0.410286         2.683408         0.026180
 H         0.508734         0.426127        -0.141317
 H        -2.237041        -0.137322         1.366630
 H        -1.443393        -0.287504         2.966246
 H        -2.921380         1.675335         3.430236
 H        -0.620334         3.381091         3.558484
 H         1.074269         2.329962         1.611113
 H         0.920065         1.119123         2.800467
