19
Iteration:   887
 O        -2.837949         3.840880         1.418265
 C        -1.844296         2.816582         1.712440
 C        -1.297074         2.059878         0.543308
 C        -0.510280         0.875674         1.191374
 O         0.108776        -0.115892         0.425635
 C        -1.643122         0.432448         2.176405
 C        -2.106646         1.786166         2.776740
 C        -0.825693         2.724918         2.857264
 C         0.311356         1.814918         2.281366
 H        -2.330305         4.646350         1.540539
 H        -2.219569         1.742281        -0.004466
 H        -0.577265         2.647123        -0.117148
 H         0.953704         0.129522         0.003086
 H        -2.368446        -0.296116         1.834024
 H        -1.226402        -0.211230         3.046856
 H        -3.035498         1.979884         3.309546
 H        -0.772463         3.539759         3.598569
 H         1.237566         2.362875         1.839355
 H         0.660702         1.126026         3.085592
