19
Iteration:   288
 O        -2.714494         3.924261         1.491221
 C        -1.951070         2.782216         1.656702
 C        -1.243715         2.088322         0.518688
 C        -0.543846         0.962288         1.272759
 O         0.071719        -0.011050         0.406909
 C        -1.708911         0.346803         2.231085
 C        -2.048306         1.716383         2.824508
 C        -0.838154         2.707519         2.686652
 C         0.334810         1.770655         2.269252
 H        -3.507773         3.570849         1.026666
 H        -1.902901         1.610052        -0.179035
 H        -0.477729         2.819574         0.106089
 H         1.077502         0.135271         0.508838
 H        -2.400141        -0.234154         1.676596
 H        -1.201613        -0.275804         3.004312
 H        -2.726552         1.995606         3.662972
 H        -0.788901         3.306479         3.609379
 H         1.113961         2.219310         1.722794
 H         0.758964         1.156895         3.080890
