19
Iteration:    63charge 0 multiplicity 1
 O        -2.778235         3.839894         1.532301
 C        -1.862147         2.763033         1.716172
 C        -1.376055         2.023388         0.471218
 C        -0.563240         0.920719         1.259464
 O         0.179662        -0.013601         0.502761
 C        -1.638766         0.390773         2.290568
 C        -2.048084         1.774694         2.798829
 C        -0.743888         2.724026         2.764368
 C         0.368013         1.897068         2.075628
 H        -3.623929         3.489206         1.258031
 H        -2.207429         1.564793        -0.117396
 H        -0.799398         2.644423        -0.240119
 H        -0.465821        -0.591819         0.126861
 H        -2.540257        -0.058647         1.771651
 H        -1.224563        -0.201180         3.099229
 H        -2.770723         1.856747         3.600230
 H        -0.667417         3.575274         3.431679
 H         0.902665         2.569229         1.330103
 H         1.031104         1.411594         2.779453
