19
Iteration:  2767charge 0 multiplicity 1
 O        -2.578533         3.940911         1.567872
 C        -1.884424         2.675545         1.602006
 C        -1.406976         1.778518         0.445327
 C        -0.549755         0.936192         1.259083
 O         0.041618        -0.022719         0.481878
 C        -1.608602         0.494202         2.290672
 C        -1.997987         1.748158         2.855181
 C        -0.917980         2.733631         2.784342
 C         0.337969         2.024062         2.108908
 H        -3.387056         3.986164         1.007506
 H        -2.124643         1.160854        -0.187994
 H        -0.752111         2.383029        -0.378717
 H         0.354045        -0.764236         1.132272
 H        -2.471414        -0.018933         1.748090
 H        -1.144195        -0.242252         2.949471
 H        -2.853101         1.711453         3.579064
 H        -0.927677         3.744283         3.173606
 H         0.854253         2.550270         1.414126
 H         1.056742         1.522270         2.735320
