19
Iteration:  4096charge 0 multiplicity 1
 O        -2.887922         3.722199         1.407225
 C        -1.812994         2.800929         1.705959
 C        -1.516234         1.927707         0.489028
 C        -0.654761         0.937041         1.230434
 O         0.070103        -0.092489         0.492788
 C        -1.608869         0.496909         2.418102
 C        -1.987330         1.948309         2.873702
 C        -0.590972         2.761384         2.581707
 C         0.433674         1.814542         2.047966
 H        -3.197194         3.953477         2.282551
 H        -2.462113         1.581229         0.077502
 H        -1.004548         2.539202        -0.213716
 H         0.971552        -0.104882         0.994838
 H        -2.467357        -0.029368         2.125009
 H        -1.280668        -0.035988         3.259588
 H        -2.647815         2.255002         3.677569
 H        -0.486980         3.640893         3.217637
 H         1.245468         2.235868         1.408637
 H         0.934524         1.043371         2.703533
