19
Iteration:  3031charge 0 multiplicity 1
 O        -2.594765         3.917912         1.419662
 C        -1.959543         2.706856         1.637792
 C        -1.466299         1.977139         0.410338
 C        -0.532035         0.986904         1.225986
 O         0.135033         0.002415         0.444301
 C        -1.578025         0.402081         2.354660
 C        -2.071867         1.803131         2.917420
 C        -0.857402         2.670683         2.707763
 C         0.298951         1.843150         2.201723
 H        -3.593586         3.942413         1.411841
 H        -2.220831         1.660904        -0.232153
 H        -0.733754         2.677758        -0.091326
 H         0.597753        -0.608140         0.982765
 H        -2.420978        -0.180970         1.907108
 H        -0.995637        -0.255101         3.030333
 H        -2.688244         1.862279         3.823350
 H        -0.678968         3.487360         3.395674
 H         1.046850         2.358979         1.665600
 H         0.717052         1.057839         2.915913
