19
Iteration:  3025charge 0 multiplicity 1
 O        -2.611319         3.929579         1.438234
 C        -1.901508         2.727105         1.651650
 C        -1.429280         1.942353         0.410983
 C        -0.579096         0.961869         1.230490
 O         0.132115         0.047778         0.481413
 C        -1.607703         0.440340         2.314107
 C        -2.054319         1.759126         2.893318
 C        -0.861494         2.655428         2.717856
 C         0.307682         1.839993         2.170018
 H        -3.517013         3.575693         1.571759
 H        -2.235394         1.592162        -0.370769
 H        -0.873029         2.612003        -0.231881
 H         0.540041        -0.662217         1.109016
 H        -2.416419        -0.131434         1.884059
 H        -1.187093        -0.204168         3.127934
 H        -2.680089         1.968174         3.771705
 H        -0.702859         3.481107         3.410432
 H         1.105617         2.352974         1.526979
 H         0.822340         1.273203         2.927440
