19
Iteration:  1393charge 0 multiplicity 1
 O        -2.866707         3.818088         1.452668
 C        -1.829957         2.817598         1.706336
 C        -1.287533         2.033043         0.522688
 C        -0.534763         0.887834         1.279395
 O         0.056136        -0.088021         0.430910
 C        -1.621488         0.380007         2.335493
 C        -2.055803         1.856871         2.797066
 C        -0.737854         2.741801         2.763065
 C         0.347549         1.833849         2.212828
 H        -2.775580         4.102513         0.507219
 H        -2.079859         1.778965        -0.232588
 H        -0.657790         2.701704        -0.149865
 H        -0.426725        -0.043014        -0.485665
 H        -2.324267        -0.352108         1.888597
 H        -1.112984        -0.003124         3.198013
 H        -2.571371         2.116036         3.699812
 H        -0.658375         3.491742         3.568696
 H         1.196132         2.302148         1.755483
 H         0.690475         1.009385         2.827272
