19
Iteration:  4104
 O        -2.833970         3.697583         1.402141
 C        -1.813800         2.785562         1.637848
 C        -1.544887         1.930572         0.503644
 C        -0.583222         0.938304         1.264469
 O         0.009564        -0.070192         0.496160
 C        -1.635074         0.531590         2.414902
 C        -1.918451         1.929245         2.884461
 C        -0.577109         2.773091         2.657117
 C         0.351963         1.837880         2.017594
 H        -3.433552         3.721710         2.154278
 H        -2.377722         1.374795         0.081254
 H        -1.046126         2.589073        -0.267657
 H         0.942157        -0.306343         0.898159
 H        -2.525794         0.051000         1.923211
 H        -1.190613        -0.241191         3.171099
 H        -2.597953         2.104893         3.652338
 H        -0.301941         3.706811         3.154218
 H         1.158150         2.429951         1.555573
 H         0.881340         1.215154         2.842990
