19
Iteration:  2923
 O        -2.628619         3.990397         1.432617
 C        -1.913427         2.819954         1.617268
 C        -1.462583         1.779306         0.518992
 C        -0.504517         0.887777         1.392860
 O         0.133145         0.040916         0.310231
 C        -1.627704         0.411349         2.368767
 C        -2.108114         1.815034         2.859821
 C        -0.787008         2.660011         2.825536
 C         0.315037         1.921820         2.167974
 H        -3.400067         3.575935         0.990105
 H        -2.312607         1.089650         0.002406
 H        -0.750000         2.271764        -0.282848
 H         0.689607        -0.656310         0.466982
 H        -2.354112         0.019865         1.656370
 H        -1.319803        -0.317634         3.059122
 H        -2.948955         1.939272         3.533229
 H        -0.747069         3.503710         3.552497
 H         0.787399         2.524375         1.439836
 H         1.024295         1.419350         2.792240
