19
Iteration:   281charge 0 multiplicity 1
 O        -2.674911         3.936139         1.486367
 C        -1.887879         2.743780         1.602599
 C        -1.240512         2.065327         0.495888
 C        -0.600180         0.956540         1.303401
 O         0.043263         0.110739         0.448566
 C        -1.664239         0.359441         2.266033
 C        -2.116576         1.670982         2.835794
 C        -0.848687         2.670735         2.725822
 C         0.346958         1.736409         2.224277
 H        -3.440459         3.661238         0.888214
 H        -1.976614         1.647671        -0.219025
 H        -0.612236         2.610963        -0.199230
 H         1.034979         0.147279         0.514982
 H        -2.369597        -0.343470         1.714717
 H        -1.185683        -0.290860         3.005245
 H        -2.738004         1.804423         3.737303
 H        -0.766730         3.421127         3.544650
 H         1.132113         2.357340         1.663520
 H         0.832518         1.203925         3.054450
