19
Iteration:  1729charge 0 multiplicity 1
 O        -2.763640         3.825056         1.706588
 C        -1.824624         2.819587         1.569281
 C        -1.431357         1.938268         0.365832
 C        -0.544691         0.945188         1.288323
 O         0.156956        -0.113815         0.671929
 C        -1.658661         0.456943         2.203711
 C        -2.071051         1.844294         2.742075
 C        -0.809971         2.706468         2.664087
 C         0.334120         1.818711         2.142529
 H        -2.427831         4.553234         1.113244
 H        -2.372065         1.513315        -0.081790
 H        -0.749190         2.293094        -0.376496
 H         0.416038         0.180216        -0.297043
 H        -2.354451        -0.159718         1.657910
 H        -1.239890        -0.161012         3.081231
 H        -2.799911         2.124684         3.487655
 H        -0.936345         3.571128         3.289669
 H         1.053713         2.519201         1.625245
 H         0.865776         1.225617         2.859615
