19
Iteration:  4844charge 0 multiplicity 1
 O        -2.831297         3.848364         1.410896
 C        -1.939959         2.771619         1.650898
 C        -1.635434         1.795246         0.559152
 C        -0.577879         0.851137         1.300967
 O         0.078467         0.043586         0.402863
 C        -1.503648         0.408657         2.489823
 C        -1.899381         1.819196         2.890464
 C        -0.731996         2.854771         2.552738
 C         0.409284         1.844479         2.033387
 H        -2.357280         4.651675         1.615177
 H        -2.469061         1.209576         0.212893
 H        -1.205003         2.292482        -0.295090
 H         0.724130        -0.469945         0.868200
 H        -2.431748        -0.229143         2.318497
 H        -0.982456        -0.045062         3.306464
 H        -2.470738         2.227984         3.686412
 H        -0.702973         3.688956         3.208813
 H         1.353788         2.247159         1.461574
 H         0.801057         1.414397         2.963929
