19
Iteration:  4344
 O        -2.723133         3.858538         1.577474
 C        -1.909766         2.704988         1.631534
 C        -1.600166         1.836596         0.549066
 C        -0.550376         0.929414         1.274334
 O        -0.085608        -0.179660         0.458817
 C        -1.436138         0.465664         2.477836
 C        -1.862975         1.838643         2.913999
 C        -0.745117         2.856474         2.477341
 C         0.393189         2.056032         1.984941
 H        -3.194223         3.852932         0.747236
 H        -2.382806         1.270109         0.030499
 H        -1.031534         2.424396        -0.233684
 H         0.360121        -0.957421         0.978090
 H        -2.320925        -0.093786         2.177336
 H        -1.037015        -0.115765         3.376794
 H        -2.569600         1.890327         3.797877
 H        -0.677428         3.819455         2.978678
 H         0.958665         2.457441         1.157316
 H         1.044042         1.738856         2.810776
