19
Iteration:  4771
 O        -2.886436         3.861585         1.609446
 C        -1.951091         2.747700         1.599138
 C        -1.392700         1.897986         0.488243
 C        -0.569740         0.900887         1.263759
 O        -0.098162        -0.217973         0.463336
 C        -1.398096         0.491251         2.440354
 C        -1.894615         1.785373         2.870018
 C        -0.812846         2.851966         2.576907
 C         0.419920         2.020812         2.013708
 H        -2.612467         4.351569         0.790645
 H        -2.276721         1.322813         0.058198
 H        -0.801307         2.455436        -0.288726
 H         0.555473        -0.818502         0.975030
 H        -2.188343        -0.129406         2.054727
 H        -0.795534        -0.012859         3.278872
 H        -2.682575         1.891121         3.552437
 H        -0.652203         3.625932         3.293448
 H         1.102413         2.526430         1.364599
 H         0.955255         1.536532         2.840772
