19
Iteration:  2363
 O        -2.699596         4.010325         1.583458
 C        -1.958673         2.774396         1.633267
 C        -1.477262         1.861066         0.403114
 C        -0.525067         0.893906         1.254372
 O         0.076318        -0.167735         0.520651
 C        -1.488757         0.437548         2.390248
 C        -2.003543         1.805228         2.776049
 C        -0.810102         2.680018         2.699315
 C         0.308036         2.008800         2.038968
 H        -3.471353         3.798984         1.075114
 H        -2.427354         1.187700         0.124139
 H        -1.214175         2.472244        -0.509609
 H         0.895277        -0.275408         0.961688
 H        -2.242342        -0.241034         2.155034
 H        -0.883209         0.102647         3.236610
 H        -2.784032         1.844727         3.520199
 H        -0.642290         3.509195         3.416347
 H         0.938468         2.560695         1.417695
 H         0.944169         1.431298         2.702268
