19
Iteration:  4657charge 0 multiplicity 1
 O        -2.969075         3.741127         1.477666
 C        -1.892506         2.838733         1.625892
 C        -1.411357         1.955014         0.424510
 C        -0.520624         0.869998         1.319514
 O        -0.093534        -0.195021         0.490068
 C        -1.504882         0.462704         2.460462
 C        -1.848654         1.881885         2.888493
 C        -0.725488         2.838726         2.637016
 C         0.392417         1.940333         1.943818
 H        -2.801350         4.432723         2.169623
 H        -2.164650         1.395811        -0.077715
 H        -0.798778         2.564650        -0.234863
 H         0.668144        -0.579792         0.977334
 H        -2.420631        -0.194541         2.249567
 H        -0.927175        -0.085047         3.209193
 H        -2.561871         1.991357         3.687976
 H        -0.222344         3.574371         3.307541
 H         0.893306         2.497893         1.104281
 H         1.128151         1.610037         2.627584
