19
Iteration:  4162
 O        -2.726414         3.930455         1.589904
 C        -1.890233         2.748335         1.619620
 C        -1.534983         1.850720         0.417718
 C        -0.648634         0.920210         1.218152
 O         0.044553        -0.084041         0.537348
 C        -1.388927         0.508087         2.535776
 C        -2.019975         1.802955         2.843201
 C        -0.792195         2.744864         2.645442
 C         0.330693         1.904920         1.938095
 H        -2.741183         4.185727         0.626449
 H        -2.264382         1.307955        -0.191971
 H        -0.927096         2.357951        -0.287869
 H        -0.157134        -0.908435         0.887909
 H        -1.984251        -0.369076         2.373588
 H        -0.560133         0.144700         3.116412
 H        -2.659762         1.850271         3.796688
 H        -0.759326         3.631824         3.356161
 H         0.870467         2.617207         1.265264
 H         1.093410         1.284257         2.519373
