19
Iteration:    18charge 0 multiplicity 1
 O        -2.786833         3.704698         1.431172
 C        -1.977758         2.660410         1.625465
 C        -1.389579         2.002960         0.483336
 C        -0.554551         1.005141         1.184087
 O        -0.036295        -0.075255         0.322394
 C        -1.534295         0.513537         2.322520
 C        -2.031160         1.864510         2.900680
 C        -0.728682         2.717659         2.805127
 C         0.441570         1.868840         2.290340
 H        -3.373105         3.872071         2.183461
 H        -2.037539         1.649517        -0.342855
 H        -0.727002         2.764235         0.008077
 H         0.892724         0.070284         0.263000
 H        -2.378441        -0.082529         1.862462
 H        -0.938815         0.015255         3.095136
 H        -2.840265         2.077086         3.623141
 H        -0.539537         3.729217         3.229669
 H         1.227508         2.493970         1.763249
 H         0.844129         1.134590         3.018718
