19
Iteration:  4472
 O        -2.774471         3.843365         1.456698
 C        -1.978514         2.749796         1.651981
 C        -1.535695         1.838358         0.489164
 C        -0.558646         0.974952         1.278999
 O        -0.121643        -0.147351         0.478713
 C        -1.362736         0.445789         2.454906
 C        -1.982211         1.828795         2.933543
 C        -0.743969         2.780308         2.704833
 C         0.441380         1.980142         1.957981
 H        -2.491218         4.449505         0.715655
 H        -2.292764         1.132644         0.116149
 H        -1.111112         2.528351        -0.314917
 H         0.513975        -0.648266         0.910242
 H        -2.067251        -0.366594         2.092612
 H        -0.742575        -0.019729         3.203588
 H        -2.702142         2.067749         3.748803
 H        -0.580307         3.730116         3.209436
 H         0.923010         2.755060         1.253715
 H         1.194346         1.454247         2.552307
