19
Iteration:  3522charge 0 multiplicity 1
 O        -2.817118         3.800241         1.482973
 C        -1.891127         2.773893         1.607174
 C        -1.459386         1.890324         0.449874
 C        -0.512212         0.975206         1.314307
 O         0.042981         0.052526         0.394061
 C        -1.527852         0.427164         2.412713
 C        -2.018642         1.786489         2.837690
 C        -0.757197         2.758589         2.738740
 C         0.390030         1.869261         2.184971
 H        -2.618366         4.318975         0.695864
 H        -2.300103         1.384732        -0.068036
 H        -0.888622         2.353737        -0.406309
 H         0.077446        -0.855810         0.877989
 H        -2.404361        -0.062307         1.896079
 H        -1.134350        -0.250302         3.214165
 H        -2.849947         1.880167         3.577377
 H        -0.511107         3.614372         3.435903
 H         1.116047         2.396564         1.463620
 H         0.888410         1.211463         2.845039
