19
Iteration:  1680
 O        -2.727554         3.751504         1.354616
 C        -1.862884         2.717139         1.684732
 C        -1.292825         2.039277         0.489170
 C        -0.582095         0.992653         1.252481
 O         0.041625         0.039744         0.439854
 C        -1.628836         0.465303         2.426041
 C        -2.095270         1.812544         2.888491
 C        -0.733065         2.611133         2.837686
 C         0.311102         1.829110         2.145676
 H        -2.533024         3.911410         0.428269
 H        -2.086131         1.828629        -0.215357
 H        -0.555573         2.807153         0.024267
 H        -0.416725        -0.165890        -0.340826
 H        -2.524860        -0.099907         2.113297
 H        -1.029591        -0.044957         3.117501
 H        -2.905321         1.882932         3.635080
 H        -0.511154         3.472786         3.544246
 H         0.972577         2.363706         1.509693
 H         0.845482         1.176311         2.895395
