19
Iteration:  4095
 O        -2.892574         3.727892         1.409060
 C        -1.821358         2.801484         1.713699
 C        -1.511173         1.927013         0.486477
 C        -0.660434         0.933160         1.226816
 O         0.075536        -0.094194         0.492551
 C        -1.608460         0.496014         2.417091
 C        -1.990753         1.948484         2.873970
 C        -0.603464         2.765420         2.576080
 C         0.445733         1.809443         2.048797
 H        -3.168277         3.999329         2.297955
 H        -2.461506         1.611236         0.079910
 H        -0.977249         2.522636        -0.242792
 H         0.990765        -0.089428         1.008479
 H        -2.472822        -0.046249         2.128878
 H        -1.242679        -0.025731         3.300335
 H        -2.620518         2.263527         3.653733
 H        -0.488384         3.624593         3.239350
 H         1.235786         2.206012         1.364522
 H         0.945380         1.018753         2.724687
