19
Iteration:  1170charge 0 multiplicity 1
 O        -2.598689         3.911476         1.363820
 C        -1.861456         2.758597         1.693719
 C        -1.421183         1.900670         0.433795
 C        -0.621451         0.949541         1.227866
 O         0.103655         0.011337         0.429067
 C        -1.621378         0.381449         2.362414
 C        -2.026229         1.796431         2.952273
 C        -0.812391         2.660686         2.775121
 C         0.270917         1.871306         2.157233
 H        -3.454000         3.565769         1.635311
 H        -2.425888         1.397684         0.095010
 H        -0.814316         2.342322        -0.370489
 H         0.601824         0.632682        -0.227370
 H        -2.419726        -0.298414         2.170353
 H        -1.015070        -0.097505         3.189425
 H        -2.913813         1.943143         3.514175
 H        -0.601405         3.509405         3.430601
 H         1.086928         2.559157         1.814836
 H         0.675022         1.258807         2.936905
