19
Iteration:  4175
 O        -2.744670         3.893571         1.578627
 C        -1.918847         2.786601         1.653056
 C        -1.603938         1.788294         0.365959
 C        -0.629735         0.915295         1.239948
 O         0.135582        -0.055953         0.590030
 C        -1.453287         0.405004         2.425300
 C        -1.934010         1.839533         2.888174
 C        -0.735164         2.733147         2.660249
 C         0.305940         1.970426         1.943544
 H        -2.470703         4.437521         0.835785
 H        -2.612091         1.392803         0.129458
 H        -1.040880         2.202183        -0.456925
 H        -0.441281        -0.933535         0.607896
 H        -2.320823        -0.225503         2.220626
 H        -0.871053         0.156448         3.250926
 H        -2.722145         2.098042         3.675322
 H        -0.362021         3.684856         3.096482
 H         0.999124         2.559106         1.281810
 H         0.892720         1.368087         2.661154
