19
Iteration:   945charge 0 multiplicity 1
 O        -2.592373         3.957276         1.462956
 C        -1.871005         2.810306         1.689268
 C        -1.432231         2.107793         0.517915
 C        -0.505209         0.852335         1.271524
 O         0.268352        -0.125331         0.565141
 C        -1.650962         0.391089         2.231543
 C        -2.128325         1.746272         2.757420
 C        -0.919616         2.623739         2.740129
 C         0.236018         1.883102         2.131194
 H        -3.298005         3.977099         2.148475
 H        -2.243797         1.484729         0.016157
 H        -0.951947         2.735431        -0.346919
 H         0.267261         0.186721        -0.349743
 H        -2.438744        -0.064918         1.616736
 H        -1.225343        -0.297550         2.985894
 H        -2.829098         1.968600         3.585656
 H        -0.897122         3.432304         3.466538
 H         0.985145         2.396225         1.528056
 H         0.759596         1.293409         2.943372
