19
Iteration:  3147charge 0 multiplicity 1
 O        -2.658997         3.810866         1.512858
 C        -1.813628         2.772611         1.636972
 C        -1.358591         1.945636         0.466352
 C        -0.459104         0.966949         1.270162
 O         0.121343        -0.007017         0.456690
 C        -1.637232         0.434872         2.348162
 C        -2.122783         1.798373         2.696724
 C        -0.834632         2.689634         2.774020
 C         0.292755         1.907621         2.150027
 H        -3.538115         3.723970         1.961985
 H        -2.223124         1.329635        -0.008189
 H        -0.877704         2.601618        -0.283598
 H        -0.388260        -0.819187         0.612012
 H        -2.375740        -0.193475         1.919232
 H        -1.113079         0.002192         3.125724
 H        -2.903232         2.192947         3.332550
 H        -0.704948         3.548676         3.412907
 H         0.878524         2.631441         1.503992
 H         0.735691         1.335965         2.906126
