19
Iteration:  1937charge 0 multiplicity 1
 O        -2.651671         3.824797         1.376202
 C        -1.827222         2.728280         1.658143
 C        -1.474766         1.919733         0.477671
 C        -0.558843         0.965364         1.267761
 O        -0.014066         0.102822         0.400862
 C        -1.525086         0.409027         2.420493
 C        -2.018461         1.767819         2.862196
 C        -0.813172         2.735657         2.757289
 C         0.345794         1.891744         2.170430
 H        -3.410377         3.536436         0.877709
 H        -2.427536         1.348421         0.130835
 H        -0.888407         2.486367        -0.219264
 H         0.426602        -0.687618         0.812904
 H        -2.319438        -0.087768         1.926648
 H        -1.108144        -0.296715         3.192050
 H        -2.783890         2.033506         3.588848
 H        -0.683440         3.497160         3.541837
 H         1.091100         2.521227         1.647272
 H         0.894304         1.206745         2.803301
