19
Iteration:   891
 O        -2.816606         3.832492         1.377933
 C        -1.829662         2.801090         1.768457
 C        -1.311122         2.040687         0.524599
 C        -0.470529         0.886580         1.174385
 O         0.085581        -0.076335         0.419750
 C        -1.627583         0.392150         2.213843
 C        -2.133752         1.779402         2.777286
 C        -0.834263         2.756479         2.859851
 C         0.316954         1.803068         2.280846
 H        -2.310291         4.657050         1.646537
 H        -2.260351         1.807220        -0.007730
 H        -0.607298         2.566673        -0.207665
 H         0.912861         0.143499        -0.096910
 H        -2.344624        -0.311493         1.755298
 H        -1.332879        -0.109242         3.121581
 H        -3.102743         2.069764         3.277163
 H        -0.652191         3.471595         3.688145
 H         1.126170         2.337741         1.868672
 H         0.615353         1.148163         3.105115
