19
Iteration:  4128charge 0 multiplicity 1
 O        -2.778686         3.870355         1.465541
 C        -1.873917         2.756731         1.657145
 C        -1.420886         1.840127         0.489776
 C        -0.576670         0.900487         1.293537
 O        -0.108316        -0.115927         0.427861
 C        -1.530427         0.444025         2.410496
 C        -1.909937         1.825752         2.967566
 C        -0.702127         2.842336         2.599505
 C         0.409955         2.006157         2.041218
 H        -3.665212         3.479486         1.187554
 H        -2.200567         1.283441        -0.043834
 H        -0.788816         2.401100        -0.179605
 H         0.450721        -0.693964         0.997521
 H        -2.415690         0.003378         1.969784
 H        -1.074422        -0.280658         3.122426
 H        -2.523595         1.987158         3.851120
 H        -0.841850         3.701286         3.267949
 H         1.044156         2.588936         1.342528
 H         1.127769         1.477438         2.783914
