19
Iteration:  1670
 O        -2.738582         3.781475         1.377232
 C        -1.865891         2.702283         1.694355
 C        -1.301744         2.073198         0.481803
 C        -0.610295         0.947204         1.282132
 O         0.058238         0.077752         0.447215
 C        -1.672349         0.357522         2.411514
 C        -2.002144         1.810636         2.794784
 C        -0.759370         2.697423         2.877603
 C         0.324607         1.801240         2.145572
 H        -2.407099         4.113357         0.519926
 H        -2.005628         1.501364        -0.097988
 H        -0.603903         2.613348        -0.244468
 H        -0.737436        -0.163363        -0.097751
 H        -2.390799        -0.409532         2.145414
 H        -1.097623        -0.029977         3.179056
 H        -2.837130         2.238666         3.381528
 H        -0.681060         3.564783         3.612243
 H         0.957128         2.370962         1.520748
 H         1.010066         1.178814         2.752136
