19
Iteration:  4830charge 0 multiplicity 1
 O        -2.920392         3.747910         1.443862
 C        -1.903258         2.773192         1.706293
 C        -1.597666         1.914973         0.516750
 C        -0.676151         0.909548         1.265303
 O         0.148681        -0.060131         0.442884
 C        -1.528645         0.446818         2.432329
 C        -1.845808         1.924388         2.908871
 C        -0.620224         2.850911         2.508343
 C         0.301593         1.830080         2.097973
 H        -2.466044         4.607470         1.262805
 H        -2.565641         1.469367         0.250536
 H        -1.160525         2.390837        -0.381461
 H         0.872061        -0.375813         1.062200
 H        -2.413809        -0.148647         2.115401
 H        -0.973862        -0.194206         3.118378
 H        -2.550613         1.835929         3.801127
 H        -0.201979         3.590983         3.216851
 H         1.025125         2.134305         1.334659
 H         0.889215         1.286673         2.903119
