19
Iteration:  4290
 O        -2.703868         3.846910         1.557800
 C        -1.924142         2.734184         1.706590
 C        -1.597923         1.856169         0.468462
 C        -0.632978         0.897149         1.247205
 O         0.040735        -0.137575         0.519023
 C        -1.524383         0.378955         2.507769
 C        -1.887748         1.928207         2.952077
 C        -0.700535         2.865243         2.493124
 C         0.298642         1.960921         1.897940
 H        -3.324958         3.807169         0.835308
 H        -2.415592         1.244168         0.118510
 H        -0.931431         2.305670        -0.288397
 H         1.032147        -0.173771         0.840345
 H        -2.496731        -0.013001         2.271972
 H        -0.904583        -0.238348         3.239418
 H        -2.534750         2.175103         3.857393
 H        -0.385024         3.683528         3.145863
 H         0.818554         2.322502         1.056667
 H         1.051385         1.488251         2.528054
