19
Iteration:   562charge 0 multiplicity 1
 O        -2.754777         3.960624         1.524278
 C        -1.898418         2.815827         1.605184
 C        -1.271719         2.059083         0.497986
 C        -0.519659         0.944540         1.301647
 O         0.147276        -0.050776         0.499420
 C        -1.699388         0.356673         2.159514
 C        -2.111623         1.699524         2.686924
 C        -0.940329         2.607459         2.786501
 C         0.349361         1.821706         2.253127
 H        -2.325904         4.498384         2.228822
 H        -1.881749         1.625921        -0.240239
 H        -0.481035         2.597241        -0.030593
 H         0.710204         0.634565        -0.017094
 H        -2.367108        -0.178591         1.476258
 H        -1.305542        -0.380084         2.893742
 H        -3.001293         1.582507         3.323432
 H        -0.720143         3.090158         3.736125
 H         1.077698         2.461191         1.736748
 H         0.783015         1.252853         3.130124
