19
Iteration:  4448
 O        -2.772922         3.919670         1.497817
 C        -1.943013         2.800385         1.688340
 C        -1.564467         1.839309         0.482576
 C        -0.642623         0.832033         1.246229
 O         0.082630        -0.167175         0.527693
 C        -1.436798         0.463892         2.513115
 C        -1.948270         1.774289         2.835401
 C        -0.732895         2.798490         2.581176
 C         0.311885         1.993079         1.863920
 H        -2.354035         4.752178         1.731483
 H        -2.490359         1.317213         0.206104
 H        -1.172688         2.413840        -0.352570
 H         0.715878        -0.551093         1.194252
 H        -2.298193        -0.253805         2.334653
 H        -0.896035         0.018841         3.349452
 H        -2.596289         1.930837         3.741673
 H        -0.554390         3.492695         3.424466
 H         0.739300         2.600156         1.046657
 H         1.093369         1.617514         2.487158
