19
Iteration:  1435charge 0 multiplicity 1
 O        -2.740538         3.873898         1.468466
 C        -1.824719         2.801674         1.631126
 C        -1.403052         1.890872         0.480554
 C        -0.618150         0.951585         1.262738
 O         0.140567         0.063106         0.506154
 C        -1.676548         0.370585         2.317848
 C        -2.055789         1.731608         2.811269
 C        -0.728301         2.709519         2.756410
 C         0.310051         1.853410         2.150737
 H        -2.256608         4.656790         1.176475
 H        -2.309449         1.512315        -0.159266
 H        -0.745092         2.346902        -0.299720
 H        -0.358875        -0.789452         0.359699
 H        -2.553773        -0.069083         1.851962
 H        -1.263097        -0.306380         3.089991
 H        -2.545690         1.888498         3.742447
 H        -0.656073         3.531232         3.494988
 H         0.937861         2.464608         1.398599
 H         0.984219         1.464727         2.933642
