19
Iteration:  4870charge 0 multiplicity 1
 O        -2.636255         3.832283         1.418374
 C        -1.979269         2.635784         1.645651
 C        -1.509062         1.779915         0.492879
 C        -0.549783         0.898726         1.310185
 O        -0.048829        -0.029350         0.381045
 C        -1.439388         0.516393         2.479516
 C        -2.015353         1.786125         2.937467
 C        -0.832981         2.765801         2.701869
 C         0.346310         2.034916         1.979458
 H        -2.110349         4.484364         1.869781
 H        -2.319729         1.073800         0.132077
 H        -1.017545         2.188767        -0.424580
 H         0.463926        -0.702336         0.861284
 H        -2.231276        -0.181471         2.394799
 H        -0.767853         0.091119         3.328656
 H        -2.871993         2.069362         3.561443
 H        -0.668919         3.775864         3.197564
 H         0.640868         2.768761         1.248787
 H         1.264933         1.968279         2.575354
