19
Iteration:  2869
 O        -2.768972         3.981472         1.585496
 C        -1.901903         2.814932         1.622469
 C        -1.316729         2.024077         0.385334
 C        -0.528822         0.914019         1.217883
 O         0.089264        -0.166083         0.531754
 C        -1.616021         0.440122         2.333819
 C        -2.026147         1.798667         2.807730
 C        -0.842184         2.646506         2.677321
 C         0.355621         1.896732         2.107421
 H        -3.603911         3.517969         1.414647
 H        -2.207672         1.437316        -0.075488
 H        -0.605164         2.615459        -0.263732
 H         0.722433        -0.538683         1.105415
 H        -2.374753        -0.264246         1.907234
 H        -1.087056        -0.228210         3.137129
 H        -2.799264         1.903034         3.538468
 H        -0.860424         3.551670         3.340766
 H         0.935718         2.602010         1.449791
 H         0.945407         1.343577         2.853310
