19
Iteration:  1233
 O        -2.748842         3.849085         1.654016
 C        -1.919055         2.773015         1.672044
 C        -1.350851         1.998512         0.324215
 C        -0.562386         0.929078         1.188578
 O         0.185885        -0.106548         0.583185
 C        -1.628595         0.528564         2.288165
 C        -1.979435         1.829149         2.830175
 C        -0.819957         2.675940         2.772128
 C         0.313462         1.877571         2.047242
 H        -3.443329         3.873205         0.967655
 H        -2.120264         1.599413        -0.345318
 H        -0.616526         2.524832        -0.303611
 H        -0.374027        -0.985043         0.621916
 H        -2.535206         0.060843         1.851005
 H        -1.273310        -0.057443         3.145678
 H        -2.904929         1.913724         3.328908
 H        -0.655057         3.510143         3.452722
 H         0.985695         2.508304         1.436047
 H         0.990695         1.233487         2.699204
