19
Iteration:  2764charge 0 multiplicity 1
 O        -2.565078         3.927159         1.578092
 C        -1.908585         2.685919         1.603818
 C        -1.402992         1.807867         0.447738
 C        -0.528041         0.931902         1.241293
 O         0.042140        -0.053532         0.492413
 C        -1.603043         0.458396         2.267672
 C        -2.017548         1.791870         2.889557
 C        -0.924179         2.739566         2.769110
 C         0.325760         2.009435         2.110195
 H        -3.406871         3.915359         1.047333
 H        -2.084159         1.232081        -0.174852
 H        -0.768596         2.365628        -0.370744
 H         0.329801        -0.620451         1.155802
 H        -2.435556         0.054100         1.665763
 H        -1.011155        -0.181924         2.929581
 H        -2.848938         1.656200         3.558521
 H        -0.950077         3.793300         3.128825
 H         0.883928         2.591402         1.312988
 H         1.042478         1.521740         2.782351
