19
Iteration:  3712
 O        -2.827896         3.862192         1.519316
 C        -1.937978         2.757290         1.622373
 C        -1.447427         1.938825         0.442161
 C        -0.584745         0.920800         1.247824
 O         0.096536        -0.154033         0.583716
 C        -1.553983         0.433237         2.338154
 C        -2.007211         1.839648         2.899807
 C        -0.769508         2.738870         2.563542
 C         0.344703         1.891694         2.071966
 H        -2.525805         4.613614         2.087682
 H        -2.097118         1.435169        -0.305479
 H        -0.886439         2.623705        -0.249306
 H         0.976198         0.118482         0.460148
 H        -2.353795        -0.195738         1.968232
 H        -1.050172        -0.197547         3.114086
 H        -2.691874         2.215569         3.656536
 H        -0.456228         3.523200         3.279907
 H         1.120080         2.429624         1.427321
 H         0.803214         1.250992         2.790729
