19
Iteration:  1467
 O        -2.737583         4.007403         1.732714
 C        -1.962706         2.769460         1.621557
 C        -1.478879         1.920497         0.329808
 C        -0.555298         0.947236         1.132994
 O         0.307013        -0.161768         0.677108
 C        -1.595770         0.472267         2.308042
 C        -2.132966         1.804771         2.707973
 C        -0.838719         2.675418         2.665289
 C         0.282849         1.836616         2.070222
 H        -1.999827         4.622028         1.877816
 H        -2.170832         1.378120        -0.444990
 H        -0.842712         2.551673        -0.292514
 H        -0.284631        -0.866159         0.627478
 H        -2.397815        -0.092159         1.836814
 H        -0.982720        -0.113814         3.050859
 H        -2.739466         1.860773         3.581703
 H        -0.525469         3.631919         3.131821
 H         0.952537         2.543090         1.400227
 H         0.931246         1.240699         2.760818
