19
Iteration:  4250charge 0 multiplicity 1
 O        -2.799225         3.773586         1.372271
 C        -1.885129         2.753251         1.671370
 C        -1.466677         1.904170         0.485665
 C        -0.544824         0.986713         1.268912
 O        -0.243167        -0.246800         0.520438
 C        -1.378658         0.497873         2.504804
 C        -1.990848         1.827874         2.851323
 C        -0.639056         2.860990         2.628233
 C         0.428654         1.970554         2.034707
 H        -3.527591         3.604310         2.034600
 H        -2.301870         1.341929         0.029469
 H        -1.150934         2.665695        -0.203922
 H         0.430679        -0.040521        -0.060168
 H        -1.910045        -0.372712         2.110968
 H        -0.650330         0.167151         3.256858
 H        -2.634728         2.204648         3.704974
 H        -0.317609         3.631935         3.340398
 H         1.081147         2.640565         1.402403
 H         1.041396         1.503903         2.864341
