19
Iteration:  2193
 O        -2.596227         3.840623         1.414748
 C        -1.938560         2.637080         1.621948
 C        -1.519248         1.942306         0.481436
 C        -0.613401         0.945844         1.274061
 O         0.170098         0.050373         0.417118
 C        -1.543568         0.426312         2.491839
 C        -1.985316         1.804748         2.949123
 C        -0.810768         2.713306         2.669457
 C         0.273800         1.908415         2.127225
 H        -3.411877         3.519295         1.044580
 H        -2.366036         1.585122        -0.165184
 H        -0.765108         2.601127        -0.056281
 H        -0.464368        -0.276011        -0.319233
 H        -2.478679        -0.193457         2.333924
 H        -1.085168        -0.136676         3.301523
 H        -2.745721         1.962489         3.663730
 H        -0.554616         3.684317         3.079608
 H         1.082125         2.566909         1.718513
 H         0.938234         1.298018         2.817901
