19
Iteration:   494
 O        -2.667103         3.981313         1.450440
 C        -1.924059         2.783463         1.714213
 C        -1.290501         2.069038         0.552811
 C        -0.553875         0.902977         1.254944
 O         0.234990        -0.085366         0.499864
 C        -1.682021         0.389441         2.122241
 C        -2.161778         1.680926         2.716967
 C        -0.865889         2.664856         2.762504
 C         0.288161         1.815884         2.270703
 H        -3.363088         4.164950         2.138213
 H        -2.105446         1.786488        -0.050683
 H        -0.589416         2.550239        -0.063474
 H         0.743206         0.472935        -0.115748
 H        -2.433216        -0.027766         1.501730
 H        -1.306907        -0.330768         2.902260
 H        -2.951796         1.796568         3.440459
 H        -0.840492         3.251010         3.677883
 H         0.912339         2.519898         1.695957
 H         0.808981         1.200094         3.042414
