19
Iteration:  4355
 O        -2.730469         3.793057         1.513064
 C        -1.963541         2.693329         1.702230
 C        -1.463831         1.852485         0.447782
 C        -0.569634         0.905188         1.293743
 O        -0.201778        -0.136644         0.439718
 C        -1.400473         0.474700         2.528610
 C        -1.930730         1.876405         2.958287
 C        -0.726402         2.827009         2.546670
 C         0.429502         2.052813         1.948389
 H        -3.343266         3.552392         0.781204
 H        -2.208960         1.361908        -0.190892
 H        -0.747443         2.439385        -0.191986
 H         0.149531        -0.789085         1.044303
 H        -2.232753        -0.146332         2.206733
 H        -0.639433        -0.140703         3.121026
 H        -2.516797         2.152751         3.884298
 H        -0.469138         3.787956         2.989047
 H         0.957838         2.815905         1.395915
 H         1.132530         1.679062         2.716716
