19
Iteration:  4251
 O        -2.795133         3.779883         1.374552
 C        -1.898541         2.753748         1.665510
 C        -1.463531         1.898735         0.491402
 C        -0.534946         0.997986         1.266247
 O        -0.250364        -0.249608         0.518129
 C        -1.368187         0.495818         2.502291
 C        -1.994097         1.825883         2.858145
 C        -0.643215         2.861265         2.627299
 C         0.434107         1.970766         2.042161
 H        -3.558695         3.603360         2.006347
 H        -2.283801         1.325370         0.012772
 H        -1.187293         2.656409        -0.224686
 H         0.464418        -0.050199        -0.042976
 H        -1.944674        -0.382307         2.128743
 H        -0.695082         0.128242         3.266083
 H        -2.609219         2.207566         3.679182
 H        -0.308873         3.617050         3.339961
 H         1.075728         2.645923         1.371266
 H         1.060047         1.507040         2.847828
