19
Iteration:  4017charge 0 multiplicity 1
 O        -2.759771         3.945954         1.430478
 C        -1.872245         2.799647         1.675955
 C        -1.523431         1.886532         0.483961
 C        -0.648493         0.899958         1.326640
 O         0.112248        -0.023171         0.437739
 C        -1.516386         0.337826         2.425392
 C        -1.975685         1.840615         2.941521
 C        -0.781574         2.765110         2.686131
 C         0.378997         1.908818         2.010803
 H        -3.087275         3.801854         0.548453
 H        -2.282496         1.287019         0.010974
 H        -0.954788         2.310864        -0.358815
 H         0.463281        -0.779644         0.996941
 H        -2.381575        -0.239473         2.166587
 H        -0.805815        -0.133729         3.051712
 H        -2.727681         1.826951         3.737513
 H        -0.747137         3.542465         3.454357
 H         0.891367         2.506290         1.257472
 H         0.932869         1.263113         2.747672
