19
Iteration:  1137
 O        -2.821588         3.927771         1.433644
 C        -1.897254         2.756034         1.663896
 C        -1.276891         2.022771         0.547328
 C        -0.492358         0.928766         1.331529
 O        -0.048269        -0.088448         0.442071
 C        -1.654969         0.420256         2.259245
 C        -2.035804         1.791117         2.885291
 C        -0.763477         2.668203         2.653614
 C         0.419007         1.890327         2.163104
 H        -3.737518         3.569230         1.254113
 H        -1.967179         1.424365        -0.148514
 H        -0.604966         2.609356        -0.070772
 H         0.950697        -0.030432         0.314702
 H        -2.390038        -0.179997         1.765630
 H        -1.125695        -0.208303         3.035297
 H        -2.626110         1.924453         3.756643
 H        -0.548982         3.381261         3.426625
 H         1.264173         2.403896         1.695612
 H         0.790614         1.352291         3.017369
