19
Iteration:  1092
 O        -2.700766         3.975464         1.704455
 C        -1.875989         2.780462         1.662863
 C        -1.367691         2.002247         0.373963
 C        -0.580389         0.986318         1.216284
 O         0.136438        -0.115464         0.671205
 C        -1.668191         0.371551         2.280900
 C        -2.115064         1.763797         2.682071
 C        -0.804715         2.685123         2.626721
 C         0.376823         1.836538         2.034287
 H        -3.572102         3.668549         1.341693
 H        -2.230563         1.486939        -0.226647
 H        -0.763663         2.642860        -0.298683
 H         1.116517         0.098444         0.910803
 H        -2.530025        -0.059828         1.761647
 H        -1.323041        -0.306936         3.086298
 H        -2.952005         1.896656         3.401922
 H        -0.684244         3.439830         3.388673
 H         1.119406         2.361206         1.428581
 H         0.948603         1.303152         2.786995
