19
Iteration:  1315charge 0 multiplicity 1
 O        -2.642681         3.966676         1.419836
 C        -1.901073         2.796535         1.673254
 C        -1.478645         1.951519         0.473907
 C        -0.665783         0.955677         1.232521
 O         0.097455        -0.018569         0.548614
 C        -1.544010         0.323140         2.329627
 C        -2.064411         1.712254         2.807451
 C        -0.782879         2.629169         2.715664
 C         0.287640         1.902698         2.071742
 H        -2.760119         4.440723         2.286152
 H        -2.346844         1.467576        -0.127049
 H        -0.735931         2.475371        -0.229781
 H         1.058201         0.150043         0.665909
 H        -2.390084        -0.300129         2.015503
 H        -0.957463        -0.266538         3.055367
 H        -2.851307         1.968969         3.533080
 H        -0.645448         3.254085         3.566231
 H         0.958494         2.455111         1.402133
 H         0.853927         1.334619         2.788456
