19
Iteration:   741
 O        -2.719580         3.913619         1.518145
 C        -1.890434         2.815370         1.683791
 C        -1.258586         2.109908         0.471453
 C        -0.491377         1.001180         1.198764
 O         0.150720        -0.058624         0.643003
 C        -1.673588         0.387222         2.127288
 C        -2.166381         1.705345         2.661222
 C        -0.800603         2.668051         2.739457
 C         0.311568         1.762161         2.272023
 H        -3.501636         3.951421         2.150945
 H        -2.181815         1.837207        -0.165091
 H        -0.589124         2.761511        -0.121358
 H         0.383013         0.044866        -0.301681
 H        -2.491345        -0.197895         1.562069
 H        -1.310593        -0.380865         2.837878
 H        -3.049453         1.767667         3.345381
 H        -0.856316         3.253842         3.665028
 H         1.214529         2.319258         1.815564
 H         0.799305         0.976843         2.897926
