19
Iteration:  2135
 O        -2.781232         3.866085         1.649834
 C        -1.849578         2.802491         1.592296
 C        -1.498092         2.009761         0.347741
 C        -0.580004         0.978578         1.191719
 O         0.257607        -0.140080         0.716316
 C        -1.641472         0.481422         2.203487
 C        -1.950367         1.836954         2.858417
 C        -0.821184         2.728727         2.672805
 C         0.327279         1.871281         2.018251
 H        -3.653745         3.384339         1.657278
 H        -2.172719         1.473675        -0.176961
 H        -0.836735         2.502089        -0.350991
 H        -0.325211        -0.862946         0.668137
 H        -2.486414        -0.148690         1.914627
 H        -0.927457        -0.056661         2.889275
 H        -2.695117         1.994075         3.691081
 H        -0.467576         3.454212         3.394469
 H         0.984382         2.429620         1.270478
 H         0.803641         1.113723         2.683968
