19
Iteration:  1624charge 0 multiplicity 1
 O        -2.714690         3.921008         1.655760
 C        -1.949749         2.720408         1.554150
 C        -1.532100         2.030919         0.310953
 C        -0.596911         0.957567         1.204814
 O         0.269261        -0.102340         0.700888
 C        -1.643713         0.389841         2.235637
 C        -2.018743         1.848563         2.811224
 C        -0.821426         2.715066         2.627441
 C         0.373584         1.818512         2.147049
 H        -2.237219         4.722270         1.980987
 H        -2.277664         1.595136        -0.352191
 H        -0.860576         2.685015        -0.369586
 H        -0.242274        -1.011281         0.627086
 H        -2.547405        -0.056392         1.765033
 H        -1.179189        -0.349294         2.834961
 H        -2.753160         1.921757         3.591027
 H        -0.823193         3.556009         3.326758
 H         1.029048         2.346482         1.470635
 H         0.966352         1.123743         2.839398
