19
Iteration:  4226charge 0 multiplicity 1
 O        -2.888753         3.734970         1.411494
 C        -1.887026         2.808603         1.610026
 C        -1.447302         1.915034         0.444376
 C        -0.649770         0.924923         1.278521
 O        -0.003683        -0.157201         0.580796
 C        -1.500284         0.476615         2.514894
 C        -1.801158         1.886561         2.920982
 C        -0.699844         2.831493         2.621313
 C         0.359876         1.852503         1.980878
 H        -3.037192         4.223072         2.267656
 H        -2.299293         1.476862        -0.094134
 H        -0.863929         2.544141        -0.244879
 H         0.008462         0.051868        -0.399088
 H        -2.492581         0.091856         2.239433
 H        -0.893797        -0.180040         3.224076
 H        -2.563829         2.276754         3.694925
 H        -0.337105         3.658505         3.256558
 H         0.862722         2.342501         1.161331
 H         1.071475         1.311574         2.675441
