19
Iteration:  4877
 O        -2.625128         3.823143         1.411852
 C        -1.910436         2.635582         1.689782
 C        -1.528468         1.828367         0.512168
 C        -0.577049         0.892156         1.245283
 O        -0.050293        -0.083935         0.437162
 C        -1.437504         0.448659         2.493442
 C        -1.995971         1.802544         2.889793
 C        -0.892166         2.792244         2.732110
 C         0.352698         2.110364         1.946548
 H        -2.143975         4.579075         1.809779
 H        -2.299550         1.246845         0.047184
 H        -1.057260         2.487677        -0.203186
 H         0.482174        -0.850200         0.889170
 H        -2.216082        -0.384700         2.313276
 H        -0.762274         0.132526         3.248406
 H        -2.807294         1.920286         3.551833
 H        -0.851632         3.719237         3.249232
 H         0.717381         2.732119         0.985176
 H         1.278862         1.865831         2.518646
