19
Iteration:  4368
 O        -2.814548         3.789380         1.412341
 C        -1.908000         2.668151         1.633714
 C        -1.368253         1.921072         0.470070
 C        -0.572705         0.986988         1.268060
 O        -0.249043        -0.120368         0.448196
 C        -1.388771         0.524249         2.546610
 C        -1.841316         1.866133         2.988124
 C        -0.719187         2.801136         2.685637
 C         0.398877         1.962416         1.917349
 H        -3.675984         3.438148         1.113859
 H        -2.135486         1.377283        -0.065175
 H        -0.858931         2.582915        -0.197408
 H         0.193191        -0.900430         0.878715
 H        -2.073571        -0.285292         2.342714
 H        -0.741275         0.187899         3.421634
 H        -2.559166         2.105494         3.737164
 H        -0.676811         3.666513         3.343506
 H         0.897650         2.333772         1.101032
 H         1.107286         1.432412         2.545347
