19
Iteration:  1786
 O        -2.704304         3.878302         1.284858
 C        -1.911580         2.743250         1.740180
 C        -1.459123         1.938483         0.527569
 C        -0.501971         0.965540         1.280519
 O         0.022118        -0.012391         0.406265
 C        -1.583962         0.431041         2.289842
 C        -2.028489         1.757173         2.880222
 C        -0.804413         2.692049         2.747464
 C         0.350993         1.883218         2.185014
 H        -2.483629         4.622940         1.858700
 H        -2.333051         1.371326         0.046867
 H        -0.964254         2.422975        -0.306985
 H         0.672106        -0.478284         0.929193
 H        -2.403339        -0.139204         1.717632
 H        -1.167616        -0.294565         3.078267
 H        -2.846921         1.728843         3.610303
 H        -0.605125         3.405084         3.594404
 H         1.046832         2.653294         1.704267
 H         0.932752         1.326733         2.994828
