19
Iteration:   119
 O        -2.602903         4.044309         1.579961
 C        -1.904483         2.825820         1.626047
 C        -1.492044         1.910407         0.465851
 C        -0.568287         0.924251         1.293563
 O         0.158488        -0.011554         0.445892
 C        -1.520508         0.349052         2.321979
 C        -2.153890         1.709809         2.762271
 C        -0.870075         2.568908         2.727163
 C         0.305032         1.913107         2.089745
 H        -3.541239         3.842437         1.432338
 H        -2.345324         1.335715         0.053625
 H        -0.880540         2.319876        -0.329260
 H         1.130336         0.080772         0.633294
 H        -2.286390        -0.326485         1.840360
 H        -1.090161        -0.322224         3.043255
 H        -2.861104         2.002937         3.551349
 H        -0.748832         3.291555         3.520557
 H         0.948931         2.713341         1.621798
 H         0.914055         1.528071         2.886579
