19
Iteration:  3115
 O        -2.792905         4.013589         1.543852
 C        -2.008579         2.811026         1.642821
 C        -1.360699         1.993520         0.433303
 C        -0.491864         0.947488         1.215121
 O         0.206398        -0.107164         0.542861
 C        -1.642899         0.375797         2.219294
 C        -1.913471         1.746419         2.870996
 C        -0.791073         2.719355         2.638965
 C         0.265718         1.824032         2.152932
 H        -3.731991         3.848058         1.456802
 H        -2.067783         1.589483        -0.352036
 H        -0.797929         2.787578        -0.123841
 H         0.318214        -0.872956         1.240112
 H        -2.592060        -0.013639         1.866378
 H        -1.288631        -0.389814         2.943653
 H        -2.646041         1.964326         3.628327
 H        -0.698854         3.573981         3.289161
 H         1.241686         2.071332         1.705801
 H         0.643888         1.335659         2.982230
