19
Iteration:  3048
 O        -2.578270         4.019058         1.402717
 C        -2.056304         2.696842         1.693530
 C        -1.381000         1.992227         0.566369
 C        -0.571413         0.909281         1.253148
 O         0.080028        -0.060014         0.327563
 C        -1.490929         0.392252         2.343098
 C        -2.041305         1.728320         2.844376
 C        -0.885172         2.741954         2.725164
 C         0.287119         1.840220         2.240753
 H        -3.448199         3.781995         0.978847
 H        -2.059919         1.367012        -0.180865
 H        -0.956191         2.693869        -0.131785
 H         0.785012        -0.378607         0.814849
 H        -2.244749        -0.326593         2.030761
 H        -1.000754        -0.063016         3.260083
 H        -2.858582         1.845660         3.525348
 H        -0.759795         3.729531         3.205438
 H         1.214260         2.411342         1.779124
 H         0.645544         1.386329         3.137895
