19
Iteration:  3390charge 0 multiplicity 1
 O        -2.751058         3.785886         1.555459
 C        -1.855012         2.755765         1.680516
 C        -1.366388         1.899815         0.482164
 C        -0.630763         0.811738         1.280385
 O         0.122631        -0.043322         0.434452
 C        -1.671371         0.435596         2.352324
 C        -2.058345         1.833380         2.781004
 C        -0.737362         2.767475         2.752353
 C         0.268427         1.925575         2.140416
 H        -2.713285         4.246519         0.718332
 H        -2.112403         1.516045        -0.231596
 H        -0.735660         2.452224        -0.230165
 H         0.875441         0.622821         0.229014
 H        -2.389185        -0.236387         1.959491
 H        -1.288427        -0.129718         3.150231
 H        -2.740415         2.079374         3.584186
 H        -0.508823         3.697453         3.214492
 H         0.947028         2.596297         1.388425
 H         0.997934         1.510932         2.866837
