19
Iteration:  4787
 O        -2.870955         3.733000         1.672678
 C        -1.877179         2.789424         1.641521
 C        -1.393884         1.933994         0.468296
 C        -0.441209         0.898881         1.367102
 O        -0.162090        -0.212848         0.549255
 C        -1.496823         0.384175         2.365792
 C        -1.977888         1.855390         2.770806
 C        -0.705625         2.880015         2.575637
 C         0.385083         2.045514         1.947761
 H        -3.058228         4.238021         0.834978
 H        -2.081867         1.462625        -0.209655
 H        -0.717007         2.514647        -0.160911
 H         0.708565        -0.623441         0.969005
 H        -2.245773        -0.196915         1.745280
 H        -1.089762        -0.224702         3.137661
 H        -2.608691         2.185963         3.674936
 H        -0.600215         3.858546         3.122420
 H         0.838642         2.633195         1.052679
 H         1.135332         1.771508         2.758969
