19
Iteration:  1819
 O        -2.737955         3.790174         1.343844
 C        -1.866185         2.764702         1.649175
 C        -1.329861         1.961769         0.498156
 C        -0.561133         0.923746         1.307081
 O         0.106661         0.117917         0.388657
 C        -1.645235         0.426428         2.433036
 C        -1.980460         1.804182         2.864559
 C        -0.778983         2.730759         2.668596
 C         0.266410         1.775329         2.194974
 H        -3.144890         4.253883         2.109061
 H        -2.298324         1.588821         0.047565
 H        -0.637864         2.433242        -0.214589
 H        -0.248245        -0.868737         0.349371
 H        -2.521260        -0.178667         2.011844
 H        -1.129001        -0.092513         3.304984
 H        -2.911105         1.941293         3.442512
 H        -0.396871         3.451055         3.425933
 H         0.929600         2.429813         1.532022
 H         0.884305         1.275490         2.981805
