19
Iteration:  2720charge 0 multiplicity 1
 O        -2.838469         3.931779         1.476628
 C        -1.833995         2.846348         1.635430
 C        -1.327600         1.949015         0.435882
 C        -0.639737         0.895836         1.288973
 O         0.120802        -0.023247         0.495477
 C        -1.590030         0.426496         2.314944
 C        -2.028667         1.872788         2.832828
 C        -0.759921         2.698003         2.727810
 C         0.308282         1.727817         2.126551
 H        -3.756738         3.596121         1.679033
 H        -2.156565         1.438782        -0.100349
 H        -0.619165         2.374136        -0.447420
 H         0.838666        -0.352304         0.978032
 H        -2.415223        -0.225231         1.915612
 H        -0.974101        -0.104554         3.085697
 H        -2.772384         2.208068         3.537834
 H        -0.362642         3.491636         3.391967
 H         0.909429         2.349143         1.397276
 H         0.922757         1.100707         2.766170
