19
Iteration:  3282charge 0 multiplicity 1
 O        -2.728152         3.840894         1.379935
 C        -1.867150         2.795469         1.692516
 C        -1.476956         1.938512         0.416760
 C        -0.583974         0.947121         1.210620
 O         0.071596        -0.040389         0.462602
 C        -1.608216         0.413237         2.289813
 C        -1.999189         1.808807         2.913465
 C        -0.740075         2.736134         2.769427
 C         0.306288         1.836089         2.241233
 H        -3.603858         3.764607         1.784470
 H        -2.251955         1.329797        -0.068003
 H        -0.803252         2.640002        -0.275917
 H         1.083077         0.201399         0.359841
 H        -2.422299        -0.054040         1.755761
 H        -1.023046        -0.130900         3.081966
 H        -2.678516         1.900063         3.742542
 H        -0.525569         3.687632         3.259456
 H         1.135503         2.403695         1.698152
 H         0.896958         1.145144         2.879632
