19
Iteration:  1920charge 0 multiplicity 1
 O        -2.690346         3.934680         1.432206
 C        -1.953140         2.712475         1.661856
 C        -1.477042         1.944976         0.489172
 C        -0.594920         0.950280         1.277328
 O         0.058550        -0.057177         0.347491
 C        -1.519664         0.451804         2.340050
 C        -2.005505         1.798792         2.916392
 C        -0.763502         2.719887         2.713166
 C         0.288897         1.856209         2.211192
 H        -3.125827         3.720097         0.608965
 H        -2.217855         1.291318         0.083651
 H        -0.868457         2.538591        -0.261298
 H         0.889996        -0.087967         0.766986
 H        -2.216499        -0.444884         2.207373
 H        -0.855651         0.084990         3.133297
 H        -2.741152         1.814322         3.705496
 H        -0.679788         3.621228         3.285465
 H         1.149518         2.285671         1.671156
 H         0.742321         1.329725         3.116789
