19
Iteration:   310
 O        -2.832666         3.881276         1.558270
 C        -1.852077         2.832909         1.622669
 C        -1.247028         2.125546         0.432749
 C        -0.508182         0.909086         1.178115
 O         0.113899        -0.230738         0.476619
 C        -1.642948         0.521838         2.103633
 C        -2.070751         1.774629         2.818625
 C        -0.836010         2.726299         2.872108
 C         0.320044         1.800774         2.278969
 H        -3.661681         3.373066         1.674098
 H        -2.123957         1.819195        -0.158382
 H        -0.459882         2.740313        -0.101914
 H         0.991589        -0.008735         0.269794
 H        -2.390417         0.228196         1.409211
 H        -1.444882        -0.337921         2.789265
 H        -2.940309         1.695710         3.541399
 H        -0.572519         3.635944         3.473748
 H         1.084661         2.403654         1.893234
 H         0.735214         1.148011         3.078750
