19
Iteration:   423
 O        -2.706478         3.954926         1.512582
 C        -1.913136         2.831281         1.702406
 C        -1.268716         2.026966         0.474866
 C        -0.568335         0.897369         1.194534
 O         0.180759        -0.078917         0.427449
 C        -1.642381         0.381306         2.210907
 C        -2.117684         1.759118         2.817359
 C        -0.948877         2.603247         2.858183
 C         0.348975         1.825433         2.284038
 H        -3.005931         3.831555         0.563142
 H        -2.097740         1.884712        -0.334943
 H        -0.656220         2.849953        -0.092760
 H         1.055818         0.293674         0.183919
 H        -2.615468         0.092250         1.673407
 H        -1.197538        -0.361215         2.868412
 H        -2.902100         1.800691         3.546514
 H        -0.946638         3.416209         3.547873
 H         0.935492         2.372272         1.504883
 H         0.839317         1.303935         3.109124
