19
Iteration:  4375charge 0 multiplicity 1
 O        -2.839374         3.758742         1.366258
 C        -1.916984         2.809240         1.623690
 C        -1.453334         1.976345         0.522458
 C        -0.536578         0.960934         1.293520
 O        -0.226886        -0.133128         0.438374
 C        -1.369102         0.527894         2.565694
 C        -1.830315         1.855574         2.912225
 C        -0.681852         2.786613         2.677962
 C         0.388563         1.885403         1.948596
 H        -3.698743         3.242077         1.457684
 H        -2.209416         1.435567        -0.092021
 H        -0.749326         2.538333        -0.211150
 H         0.255455        -0.760758         0.893238
 H        -2.253596        -0.149132         2.513098
 H        -0.720382         0.120754         3.368380
 H        -2.635555         1.866971         3.731446
 H        -0.556136         3.624861         3.366869
 H         0.934226         2.421797         1.043286
 H         1.155691         1.430807         2.625906
