19
Iteration:   896charge 0 multiplicity 1
 O        -2.762442         3.819231         1.344164
 C        -1.820726         2.796234         1.777379
 C        -1.320482         2.021739         0.490731
 C        -0.474753         0.956035         1.219037
 O         0.063954        -0.045239         0.406513
 C        -1.612994         0.348289         2.268508
 C        -2.161699         1.769874         2.766516
 C        -0.841314         2.758400         2.855204
 C         0.301196         1.780975         2.287902
 H        -2.431149         4.643207         1.715411
 H        -2.223547         1.754986        -0.053331
 H        -0.753713         2.542616        -0.241141
 H         0.794984         0.290940        -0.171170
 H        -2.351935        -0.202498         1.626720
 H        -1.276820        -0.124722         3.235894
 H        -3.032813         2.020989         3.307963
 H        -0.537681         3.316952         3.725565
 H         1.152524         2.421555         1.837977
 H         0.674050         1.166414         3.125857
