19
Iteration:  3352charge 0 multiplicity 1
 O        -2.712512         3.946398         1.561010
 C        -1.952891         2.715560         1.694909
 C        -1.488625         2.001521         0.390418
 C        -0.529466         1.019523         1.226071
 O         0.060187        -0.180369         0.730168
 C        -1.494634         0.418578         2.138150
 C        -2.056153         1.723074         2.797500
 C        -0.770080         2.728234         2.694328
 C         0.336733         1.941670         2.142634
 H        -3.244640         3.799186         0.751351
 H        -2.397833         1.628885        -0.093398
 H        -0.929676         2.760632        -0.125662
 H         0.516485        -0.101639        -0.189242
 H        -2.260560        -0.231761         1.594627
 H        -0.856736        -0.131365         2.916787
 H        -2.543917         1.555180         3.772013
 H        -0.656598         3.641706         3.325948
 H         1.108040         2.381308         1.646135
 H         0.836634         1.265118         2.858061
