19
Iteration:  3792charge 0 multiplicity 1
 O        -2.823658         3.755142         1.523500
 C        -1.854646         2.804256         1.648849
 C        -1.466672         1.951775         0.413556
 C        -0.585437         0.893545         1.241422
 O         0.081901        -0.040656         0.483629
 C        -1.571385         0.409774         2.421280
 C        -1.988109         1.849432         2.806184
 C        -0.739487         2.789732         2.598886
 C         0.286196         1.841573         2.171563
 H        -2.281143         4.558451         1.277763
 H        -2.331615         1.343204         0.107713
 H        -0.917457         2.506414        -0.341408
 H         1.022884         0.066396         0.639135
 H        -2.412580        -0.232210         2.154591
 H        -1.051885        -0.014901         3.228607
 H        -2.694194         2.136925         3.616660
 H        -0.534987         3.719697         3.098179
 H         1.152685         2.206957         1.608419
 H         0.615143         1.190680         2.981279
