19
Iteration:  4115
 O        -2.782615         3.758206         1.410050
 C        -1.889658         2.747446         1.670999
 C        -1.450556         1.867873         0.453347
 C        -0.569967         0.945269         1.293998
 O        -0.072617        -0.068645         0.476448
 C        -1.596990         0.523991         2.364714
 C        -1.794800         1.900694         2.935915
 C        -0.723763         2.827635         2.689322
 C         0.363680         1.892714         2.056225
 H        -3.606670         3.480997         1.815790
 H        -2.337099         1.312190         0.130292
 H        -0.985647         2.277880        -0.486243
 H         0.725888        -0.483729         0.843439
 H        -2.517723         0.151187         1.844191
 H        -1.124098        -0.290862         3.063018
 H        -2.502183         2.122718         3.653358
 H        -0.302393         3.588049         3.346903
 H         0.960141         2.333107         1.241294
 H         0.989670         1.413209         2.894031
