19
Iteration:  2494
 O        -2.649779         3.931030         1.576659
 C        -1.899740         2.784911         1.690454
 C        -1.509077         1.919192         0.421988
 C        -0.624526         0.893532         1.274267
 O         0.138592        -0.071589         0.590573
 C        -1.564942         0.402078         2.378452
 C        -2.079755         1.784954         2.767882
 C        -0.781118         2.742474         2.653218
 C         0.290590         1.912934         1.966937
 H        -3.355400         3.751747         0.936605
 H        -2.445938         1.486500        -0.103835
 H        -0.806999         2.305648        -0.220309
 H         1.140364         0.134738         0.755897
 H        -2.380934        -0.289614         2.036577
 H        -1.069910        -0.223392         3.144327
 H        -2.680142         1.924017         3.688586
 H        -0.492323         3.555585         3.302471
 H         1.002223         2.334721         1.263256
 H         0.963434         1.392493         2.796040
