19
Iteration:   151
 O        -2.711444         3.770062         1.425060
 C        -1.883917         2.717460         1.704727
 C        -1.307829         2.123869         0.529464
 C        -0.598699         0.971896         1.248551
 O         0.044703        -0.035339         0.472580
 C        -1.587383         0.395915         2.251121
 C        -1.999536         1.772636         2.867399
 C        -0.832267         2.711780         2.731347
 C         0.334192         1.847975         2.213188
 H        -3.631034         3.492364         1.433563
 H        -2.051352         1.698574        -0.200548
 H        -0.609816         2.824566         0.059015
 H         0.198065         0.349381        -0.374377
 H        -2.498940         0.063226         1.637094
 H        -1.193499        -0.424804         2.851620
 H        -2.756221         2.025002         3.622385
 H        -0.499770         3.466308         3.411210
 H         1.207524         2.372136         1.685647
 H         0.685642         1.276437         3.075088
