19
Iteration:  1652
 O        -2.796796         3.880127         1.470989
 C        -1.793272         2.827533         1.630371
 C        -1.382531         1.921858         0.515218
 C        -0.549986         0.895554         1.323053
 O         0.111783         0.012438         0.446349
 C        -1.594732         0.412604         2.322330
 C        -2.077629         1.801209         2.794434
 C        -0.792018         2.676652         2.704863
 C         0.337906         1.839075         2.209020
 H        -2.424468         4.687617         1.047897
 H        -2.299334         1.586123        -0.045326
 H        -0.701197         2.333250        -0.188449
 H        -0.501509        -0.665628         0.058711
 H        -2.448868        -0.017072         1.788503
 H        -1.142059        -0.277744         3.153876
 H        -2.812952         1.821775         3.605763
 H        -0.649937         3.420479         3.456986
 H         1.057136         2.388731         1.508000
 H         0.787642         1.350699         3.056261
