19
Iteration:  3096charge 0 multiplicity 1
 O        -2.692647         3.844581         1.550219
 C        -1.862027         2.791820         1.695107
 C        -1.414004         1.998180         0.458054
 C        -0.598580         0.902432         1.260240
 O         0.191362        -0.071686         0.520768
 C        -1.689704         0.494386         2.224680
 C        -2.098096         1.789544         2.829521
 C        -0.778419         2.740311         2.715101
 C         0.320450         1.852054         2.078001
 H        -3.410471         3.603617         0.943869
 H        -2.184892         1.660369        -0.174234
 H        -0.739575         2.651837        -0.176861
 H         0.768573        -0.652560         1.166966
 H        -2.530297        -0.038542         1.648813
 H        -1.202345        -0.306650         2.938981
 H        -2.777541         1.924438         3.692902
 H        -0.699864         3.555579         3.431214
 H         0.940453         2.561399         1.512898
 H         0.978947         1.253703         2.861744
