19
Iteration:  1631charge 0 multiplicity 1
 O        -2.743624         3.907563         1.605588
 C        -2.008941         2.786599         1.609575
 C        -1.454681         1.949514         0.385337
 C        -0.534376         0.978280         1.223075
 O         0.249985        -0.127071         0.590218
 C        -1.663921         0.419550         2.211307
 C        -2.003991         1.858588         2.821404
 C        -0.833760         2.777871         2.659725
 C         0.366926         1.784786         2.180968
 H        -2.103628         4.614464         1.836878
 H        -2.240308         1.328949        -0.153592
 H        -1.058923         2.632564        -0.316512
 H        -0.251044        -1.024227         0.454929
 H        -2.461926        -0.080629         1.617918
 H        -1.184721        -0.237832         3.064077
 H        -2.781632         1.994120         3.581120
 H        -0.690346         3.576152         3.358876
 H         1.127045         2.453834         1.637166
 H         0.814477         0.996549         2.801679
