19
Iteration:  3980
 O        -2.777918         3.802111         1.490843
 C        -1.910046         2.716446         1.605150
 C        -1.430086         1.847535         0.401636
 C        -0.559120         0.954176         1.273225
 O         0.073527        -0.004460         0.467929
 C        -1.605511         0.532500         2.360539
 C        -1.973527         1.872606         2.929256
 C        -0.743424         2.792085         2.638812
 C         0.428473         1.874004         2.146527
 H        -3.532205         3.555070         2.040855
 H        -2.164067         1.170327        -0.096182
 H        -0.937103         2.576584        -0.270660
 H        -0.061276        -0.998803         0.759919
 H        -2.502265        -0.025703         1.946743
 H        -1.180568        -0.143486         3.172675
 H        -2.721360         2.223906         3.616967
 H        -0.601339         3.771309         3.089180
 H         1.181932         2.152867         1.385116
 H         0.986985         1.292401         2.857531
