19
Iteration:   203charge 0 multiplicity 1
 O        -2.675155         3.846247         1.617862
 C        -1.779567         2.760936         1.663637
 C        -1.353960         2.084821         0.380159
 C        -0.629429         0.981063         1.217672
 O         0.227975        -0.012297         0.522705
 C        -1.685269         0.435225         2.235217
 C        -2.106434         1.745392         2.760161
 C        -0.845324         2.682749         2.740783
 C         0.277583         1.852408         2.163424
 H        -3.544800         3.414886         1.487374
 H        -2.065083         1.626173        -0.320850
 H        -0.567994         2.620880        -0.208115
 H        -0.241063        -0.839397         0.703398
 H        -2.475368        -0.156959         1.721726
 H        -1.184202        -0.153317         3.038880
 H        -2.795057         1.825415         3.600976
 H        -0.661748         3.526065         3.382922
 H         1.040563         2.490492         1.616947
 H         0.803009         1.201201         2.906009
