19
Iteration:  2340
 O        -2.611271         3.945039         1.480605
 C        -1.986492         2.778230         1.659497
 C        -1.479085         1.877849         0.533489
 C        -0.624649         0.860844         1.314462
 O         0.130321        -0.002600         0.450077
 C        -1.485779         0.337320         2.454786
 C        -2.063061         1.780466         2.911519
 C        -0.835594         2.753741         2.593346
 C         0.333549         1.971193         1.981795
 H        -3.503196         3.805252         1.033886
 H        -2.354752         1.566867        -0.206382
 H        -0.782089         2.436725        -0.112072
 H         0.395434        -0.782825         1.029539
 H        -2.263976        -0.262776         2.068747
 H        -0.829526        -0.226776         3.098241
 H        -2.745453         1.984116         3.710377
 H        -0.759148         3.620934         3.255380
 H         0.969614         2.461672         1.291587
 H         0.940355         1.410248         2.661625
