19
Iteration:  4399
 O        -2.910188         3.773195         1.407144
 C        -1.870751         2.777627         1.660665
 C        -1.507788         1.837253         0.524048
 C        -0.578030         0.913383         1.252073
 O        -0.054950        -0.133489         0.425330
 C        -1.566594         0.458789         2.455166
 C        -1.859323         1.953876         2.956245
 C        -0.566961         2.886894         2.572111
 C         0.415958         1.927474         2.008221
 H        -3.464358         3.741677         2.220520
 H        -2.455247         1.348998         0.219710
 H        -1.035063         2.329774        -0.368742
 H         0.656439        -0.611703         0.913758
 H        -2.330637        -0.248189         2.149589
 H        -0.968904        -0.023548         3.304616
 H        -2.412330         2.364155         3.812460
 H        -0.540831         3.706950         3.272195
 H         1.195069         2.165475         1.269624
 H         0.868323         1.330583         2.838734
