19
Iteration:  3704charge 0 multiplicity 1
 O        -2.839714         3.846293         1.535747
 C        -2.022815         2.707834         1.661571
 C        -1.417515         1.970299         0.471858
 C        -0.583190         0.869873         1.269252
 O         0.109111        -0.147130         0.562205
 C        -1.589679         0.473194         2.377275
 C        -2.030088         1.874232         2.838687
 C        -0.728529         2.775899         2.535128
 C         0.377675         1.848312         2.019428
 H        -2.515269         4.654124         2.023094
 H        -2.030272         1.363536        -0.313370
 H        -0.556568         2.599832         0.068808
 H         0.907082         0.320945         0.305516
 H        -2.332307        -0.119127         1.839638
 H        -1.116784        -0.079890         3.122642
 H        -2.624119         2.115174         3.680896
 H        -0.612668         3.551919         3.285712
 H         1.280620         2.230725         1.417925
 H         0.879060         1.331225         3.030100
