19
Iteration:  2455charge 0 multiplicity 1
 O        -2.655424         3.854776         1.474764
 C        -1.843999         2.743926         1.622065
 C        -1.481327         1.863877         0.434968
 C        -0.585154         0.931190         1.300827
 O         0.034399        -0.002738         0.484106
 C        -1.523049         0.410924         2.361618
 C        -2.005484         1.772230         2.850615
 C        -0.790802         2.807617         2.670423
 C         0.343860         1.967393         2.128232
 H        -3.626671         3.619676         1.425583
 H        -2.273911         1.305234        -0.049116
 H        -0.818873         2.559751        -0.265788
 H        -0.307499        -0.863922         0.788041
 H        -2.303374        -0.153244         1.782780
 H        -1.020648        -0.219557         3.126753
 H        -2.589931         1.836740         3.741867
 H        -0.759227         3.687126         3.320857
 H         1.085505         2.554099         1.502286
 H         0.864880         1.483838         2.965236
