19
Iteration:  2242
 O        -2.670445         3.911395         1.612637
 C        -1.913630         2.732919         1.613572
 C        -1.510157         1.931938         0.407203
 C        -0.544106         0.885843         1.272215
 O         0.182584        -0.145404         0.641401
 C        -1.562517         0.451277         2.276504
 C        -2.006117         1.781124         2.857264
 C        -0.828852         2.778230         2.638024
 C         0.341477         1.987166         2.045799
 H        -3.597512         3.556404         1.455682
 H        -2.420562         1.322381         0.018188
 H        -1.023336         2.518950        -0.362302
 H        -0.197189        -0.432834        -0.202579
 H        -2.349885        -0.094946         1.786552
 H        -1.102682        -0.243723         3.015044
 H        -2.628768         2.090203         3.707222
 H        -0.839515         3.648184         3.282843
 H         0.879572         2.459317         1.257864
 H         1.060140         1.739906         2.771028
