19
Iteration:  1083charge 0 multiplicity 1
 O        -2.697253         4.084587         1.662891
 C        -1.987106         2.762030         1.583043
 C        -1.409799         1.964163         0.370878
 C        -0.537709         0.868537         1.284593
 O         0.170270        -0.071653         0.617938
 C        -1.664520         0.361914         2.237220
 C        -2.078704         1.771827         2.772813
 C        -0.793834         2.686551         2.687734
 C         0.374435         1.814288         2.071620
 H        -3.664275         3.929206         1.491065
 H        -2.066393         1.371625        -0.304127
 H        -0.679834         2.417260        -0.241501
 H         1.188731         0.119699         0.674435
 H        -2.453516        -0.125464         1.660812
 H        -1.369206        -0.295702         3.117816
 H        -2.787210         1.900091         3.583281
 H        -0.769910         3.451932         3.441818
 H         0.931676         2.506294         1.418080
 H         0.945067         1.172544         2.686161
