19
Iteration:  2743charge 0 multiplicity 1
 O        -2.676219         3.959093         1.519729
 C        -1.921046         2.735615         1.681003
 C        -1.458081         2.025190         0.454499
 C        -0.537643         0.931156         1.246111
 O         0.105481        -0.149804         0.546116
 C        -1.589026         0.424996         2.347841
 C        -2.055504         1.710526         2.763456
 C        -0.813635         2.719405         2.630727
 C         0.329487         1.935438         2.094767
 H        -3.612829         3.874121         1.403146
 H        -2.205659         1.601591        -0.262213
 H        -0.868939         2.889979        -0.169877
 H         0.689600        -0.656491         1.198558
 H        -2.307820        -0.215943         1.770251
 H        -1.042512        -0.147512         3.117666
 H        -2.620923         2.058234         3.617302
 H        -0.561548         3.482208         3.400689
 H         1.074744         2.435270         1.490668
 H         0.808445         1.343619         2.865793
