19
Iteration:  4917
 O        -2.938468         3.811092         1.520954
 C        -1.983406         2.775348         1.633150
 C        -1.494833         1.854387         0.478352
 C        -0.567271         0.941077         1.280460
 O         0.092640        -0.124409         0.524895
 C        -1.556498         0.515365         2.349578
 C        -1.894905         1.899991         2.881070
 C        -0.627203         2.782303         2.624530
 C         0.408226         1.854654         1.996082
 H        -2.478627         4.675185         1.492711
 H        -2.332230         1.355338        -0.049392
 H        -1.085520         2.591843        -0.269378
 H         0.356195        -0.642361         1.244345
 H        -2.436134        -0.037282         1.973060
 H        -1.096376        -0.160262         3.134349
 H        -2.581082         2.037332         3.727783
 H        -0.681709         3.677462         3.183040
 H         1.136508         2.261696         1.381981
 H         0.991092         1.174528         2.635135
