19
Iteration:  4390
 O        -2.938452         3.771773         1.359471
 C        -1.807434         2.807005         1.705269
 C        -1.472956         1.909260         0.530421
 C        -0.657123         0.867126         1.273735
 O        -0.123754        -0.135622         0.424064
 C        -1.441405         0.458358         2.505205
 C        -1.896285         1.940416         2.902912
 C        -0.616722         2.825532         2.592489
 C         0.449686         1.928915         2.002890
 H        -3.719280         3.565680         1.914973
 H        -2.451787         1.609045         0.162007
 H        -0.940695         2.420148        -0.247276
 H         0.532134        -0.714501         0.886058
 H        -2.107353        -0.320359         2.153087
 H        -0.804254         0.003453         3.334543
 H        -2.404131         2.339487         3.736760
 H        -0.254600         3.608869         3.258520
 H         1.119589         2.449399         1.401152
 H         0.996291         1.422034         2.803859
