19
Iteration:  3178charge 0 multiplicity 1
 O        -2.686689         3.959208         1.331286
 C        -1.924123         2.747288         1.718999
 C        -1.410356         1.977322         0.504025
 C        -0.545953         0.913511         1.318812
 O         0.170169         0.023589         0.519420
 C        -1.592296         0.353798         2.311533
 C        -2.007498         1.749229         2.868548
 C        -0.815931         2.672982         2.753660
 C         0.263283         1.861621         2.135094
 H        -3.638631         3.844920         1.293623
 H        -2.143120         1.456807        -0.209884
 H        -0.786839         2.615227        -0.084232
 H        -0.490045        -0.292685        -0.156903
 H        -2.370337        -0.218565         1.798118
 H        -1.062575        -0.325626         2.942478
 H        -2.465357         2.005029         3.801414
 H        -0.582954         3.495130         3.408820
 H         0.997243         2.481248         1.455342
 H         0.884728         1.310993         2.923878
