19
Iteration:  2962
 O        -2.690059         3.898691         1.509779
 C        -1.926670         2.687122         1.653255
 C        -1.370978         2.046114         0.346988
 C        -0.583001         0.970825         1.230127
 O         0.012008        -0.021544         0.549505
 C        -1.486806         0.408613         2.288147
 C        -2.012138         1.795898         2.852784
 C        -0.828027         2.728762         2.692562
 C         0.303200         1.792664         2.146313
 H        -3.629751         3.737233         1.237500
 H        -1.991977         1.627281        -0.388599
 H        -0.631081         2.781247         0.075847
 H         0.482657        -0.510919         1.311583
 H        -2.179850        -0.233314         1.680804
 H        -0.945660        -0.288015         3.063485
 H        -2.748091         2.031768         3.601589
 H        -0.760541         3.586783         3.373836
 H         1.173848         2.343289         1.635102
 H         0.605915         1.136128         3.043001
