19
Iteration:  4443
 O        -2.734157         3.882332         1.524520
 C        -1.956146         2.766258         1.673620
 C        -1.569761         1.821461         0.469576
 C        -0.679213         0.892290         1.246189
 O         0.114212        -0.137223         0.543102
 C        -1.532343         0.437386         2.517604
 C        -1.932860         1.801873         2.848406
 C        -0.765483         2.868720         2.568210
 C         0.352467         1.952082         1.831814
 H        -2.448714         4.722820         1.947238
 H        -2.374404         1.127328         0.127991
 H        -1.187847         2.448146        -0.358251
 H         0.779821        -0.572330         1.155916
 H        -2.362085        -0.219448         2.384257
 H        -0.866729        -0.089753         3.285650
 H        -2.478548         1.944164         3.727781
 H        -0.460242         3.603931         3.316755
 H         0.844217         2.525872         1.040624
 H         1.139672         1.505008         2.526319
