19
Iteration:  3577
 O        -2.779490         3.921525         1.462302
 C        -1.918744         2.809121         1.627110
 C        -1.489446         1.924500         0.492782
 C        -0.515286         0.969050         1.247880
 O         0.052716        -0.131672         0.562944
 C        -1.529210         0.455531         2.234221
 C        -1.976874         1.819632         2.807067
 C        -0.808322         2.710841         2.670296
 C         0.372176         1.859904         2.136108
 H        -3.389369         3.930712         2.215396
 H        -2.348135         1.302244         0.187828
 H        -1.062716         2.434125        -0.445489
 H         0.945481        -0.200465         0.902405
 H        -2.353484        -0.247414         1.946980
 H        -0.921644        -0.166486         2.971805
 H        -2.625427         2.006315         3.632687
 H        -0.578265         3.477774         3.428890
 H         1.121714         2.334130         1.424882
 H         0.899415         1.313169         2.846061
