19
Iteration:  3723
 O        -2.794496         3.852287         1.476162
 C        -1.858271         2.797437         1.623468
 C        -1.492524         1.918928         0.357202
 C        -0.551537         0.976693         1.224136
 O         0.049451        -0.137540         0.607471
 C        -1.551852         0.421705         2.359313
 C        -1.920267         1.783562         2.829070
 C        -0.806764         2.748048         2.722375
 C         0.284137         1.879090         2.074948
 H        -2.421470         4.529552         2.093697
 H        -2.488658         1.502399         0.219923
 H        -0.963902         2.465545        -0.460696
 H         1.058784        -0.089532         0.564856
 H        -2.423539        -0.094820         1.985446
 H        -0.904389        -0.201343         3.024255
 H        -2.681759         1.784017         3.584047
 H        -0.665843         3.713351         3.241180
 H         0.903946         2.591560         1.444789
 H         0.938226         1.451012         2.784464
