19
Iteration:  4927charge 0 multiplicity 1
 O        -2.917455         3.708458         1.607127
 C        -1.908457         2.729166         1.629926
 C        -1.524749         1.885266         0.436389
 C        -0.595910         0.927094         1.251132
 O         0.116412        -0.097465         0.477148
 C        -1.630956         0.528503         2.410546
 C        -1.932190         1.955842         2.832563
 C        -0.639325         2.842873         2.581479
 C         0.420721         1.857094         2.056084
 H        -2.503181         4.565359         1.312016
 H        -2.354857         1.286404        -0.014625
 H        -0.806641         2.249917        -0.336062
 H         0.465342        -0.779748         1.066753
 H        -2.496639         0.155049         1.880374
 H        -1.301114        -0.173983         3.246830
 H        -2.517390         2.301511         3.690091
 H        -0.283863         3.705580         3.122218
 H         1.166487         2.330976         1.511831
 H         0.844805         1.269913         2.901712
