19
Iteration:  3730charge 0 multiplicity 1
 O        -2.728178         3.829970         1.454200
 C        -1.822743         2.758788         1.616031
 C        -1.538819         1.939876         0.413612
 C        -0.605807         0.917914         1.206814
 O         0.022875        -0.128114         0.601843
 C        -1.497006         0.468501         2.320608
 C        -1.946925         1.746957         2.794585
 C        -0.799727         2.770363         2.806622
 C         0.304812         1.975736         2.067451
 H        -2.600763         4.688590         1.947067
 H        -2.444508         1.348584         0.207417
 H        -1.152263         2.187431        -0.566495
 H         0.944025        -0.015839         0.678743
 H        -2.330314        -0.147549         1.859906
 H        -1.004186        -0.228789         3.095918
 H        -2.803839         1.759827         3.549591
 H        -0.732169         3.613234         3.526896
 H         0.911819         2.540073         1.411945
 H         1.041636         1.483147         2.789349
