19
Iteration:  1334
 O        -2.763589         4.028957         1.528369
 C        -1.927560         2.853314         1.655011
 C        -1.492144         1.972128         0.376535
 C        -0.517900         0.878997         1.270785
 O         0.167604        -0.166648         0.642628
 C        -1.581795         0.403308         2.188963
 C        -2.003381         1.698445         2.838704
 C        -0.851786         2.708538         2.678517
 C         0.293824         1.827605         2.101033
 H        -2.185707         4.621853         2.050248
 H        -2.506091         1.490890         0.107359
 H        -1.116071         2.694957        -0.323774
 H         0.990461         0.167883         0.361578
 H        -2.300794        -0.197442         1.675678
 H        -1.157147        -0.319599         2.952363
 H        -2.688949         1.660096         3.728355
 H        -0.725259         3.596800         3.310824
 H         0.919792         2.559158         1.452933
 H         0.943642         1.217014         2.744431
