19
Iteration:  4568charge 0 multiplicity 1
 O        -2.731860         3.847182         1.549147
 C        -1.968808         2.685052         1.592088
 C        -1.491422         1.772025         0.453566
 C        -0.568357         0.950207         1.269165
 O        -0.100806        -0.167589         0.527609
 C        -1.416726         0.438619         2.451737
 C        -1.903451         1.847804         2.926201
 C        -0.816083         2.792519         2.571566
 C         0.353559         2.125255         1.916555
 H        -2.139021         4.608206         1.812840
 H        -2.220927         1.197706        -0.094144
 H        -0.878250         2.363051        -0.198216
 H         0.490978        -0.714499         1.091618
 H        -2.295843        -0.164915         2.049249
 H        -0.902217        -0.185733         3.193943
 H        -2.487384         1.892283         3.882070
 H        -0.760031         3.632458         3.243176
 H         0.778321         2.772913         1.135259
 H         1.134367         1.783287         2.590146
