19
Iteration:  2197
 O        -2.588781         3.827980         1.414918
 C        -1.935825         2.698153         1.652415
 C        -1.535706         1.922360         0.496314
 C        -0.618847         0.935349         1.276350
 O         0.192636         0.046979         0.423019
 C        -1.545875         0.429903         2.471794
 C        -1.993891         1.830961         2.937722
 C        -0.811182         2.683665         2.658586
 C         0.285229         1.882994         2.115437
 H        -3.433131         3.518286         0.984672
 H        -2.426965         1.593679        -0.181814
 H        -0.886638         2.589330        -0.039576
 H        -0.389699        -0.149009        -0.274590
 H        -2.404094        -0.195423         2.284509
 H        -0.988399        -0.028866         3.303530
 H        -2.779094         1.924910         3.736057
 H        -0.600457         3.674875         3.085228
 H         0.979440         2.540143         1.666864
 H         0.828740         1.333736         2.834932
