19
Iteration:  4190
 O        -2.794658         3.837218         1.554695
 C        -1.902140         2.738481         1.642346
 C        -1.643223         1.846480         0.538505
 C        -0.582231         0.905817         1.284292
 O         0.202256        -0.095516         0.588581
 C        -1.581816         0.488020         2.425140
 C        -1.897983         1.887136         2.859408
 C        -0.739466         2.844561         2.543681
 C         0.363645         1.875405         1.953954
 H        -2.204296         4.585326         1.253661
 H        -2.448644         1.154765         0.247847
 H        -1.359859         2.415173        -0.417084
 H        -0.347574        -0.744069         0.106204
 H        -2.427074        -0.065304         1.921674
 H        -1.177924        -0.391317         3.017895
 H        -2.511528         2.069978         3.671747
 H        -0.606250         3.607491         3.297472
 H         0.908268         2.375199         1.157699
 H         1.129714         1.496466         2.601105
