19
Iteration:  4669
 O        -2.921821         3.755103         1.493595
 C        -1.818429         2.815244         1.586906
 C        -1.484332         1.980937         0.395640
 C        -0.662013         0.955069         1.184654
 O        -0.100401        -0.199426         0.571342
 C        -1.381489         0.452204         2.547402
 C        -1.874570         1.790811         2.860169
 C        -0.734969         2.772211         2.635755
 C         0.434334         1.974865         1.967143
 H        -2.896065         4.429331         2.156281
 H        -2.349693         1.762955        -0.215738
 H        -0.718668         2.344224        -0.305973
 H         0.523964        -0.592800         1.129470
 H        -2.264297        -0.220131         2.232047
 H        -0.698324        -0.020390         3.263503
 H        -2.780152         2.103377         3.396890
 H        -0.658313         3.677979         3.324406
 H         1.072808         2.647237         1.309018
 H         1.044069         1.472514         2.641868
