19
Iteration:  4297charge 0 multiplicity 1
 O        -2.697131         3.841704         1.593241
 C        -1.963559         2.725450         1.670811
 C        -1.642407         1.901229         0.478616
 C        -0.677256         0.845713         1.260896
 O         0.149388        -0.075858         0.547502
 C        -1.560516         0.449276         2.540097
 C        -1.876376         1.947572         2.900919
 C        -0.674080         2.829015         2.544666
 C         0.315524         1.849422         1.813405
 H        -3.214555         3.725553         0.761573
 H        -2.621875         1.404491         0.207322
 H        -1.201182         2.293611        -0.483031
 H         1.027489        -0.305387         0.978198
 H        -2.513483        -0.145063         2.347302
 H        -0.957071        -0.152462         3.206550
 H        -2.511612         2.247983         3.685367
 H        -0.544114         3.710494         3.169850
 H         0.880896         2.417197         0.971707
 H         1.038924         1.379500         2.505415
