19
Iteration:  2389charge 0 multiplicity 1
 O        -2.711198         3.838020         1.573865
 C        -1.888634         2.718430         1.645834
 C        -1.467973         1.925840         0.415031
 C        -0.534749         0.944973         1.316133
 O         0.024217        -0.115150         0.636753
 C        -1.576266         0.454539         2.283946
 C        -1.974084         1.818312         2.842079
 C        -0.740792         2.799684         2.589935
 C         0.328843         1.917134         2.078495
 H        -3.532933         3.385992         1.459643
 H        -2.251140         1.387366        -0.059047
 H        -1.048634         2.648049        -0.384261
 H         0.832283         0.226783         0.252744
 H        -2.431353        -0.042359         1.718893
 H        -1.159509        -0.179970         3.100217
 H        -2.755823         1.897327         3.616089
 H        -0.618647         3.795158         2.976986
 H         0.909375         2.406688         1.229067
 H         0.968656         1.360860         2.783064
