19
Iteration:   867charge 0 multiplicity 1
 O        -2.820296         3.851788         1.628698
 C        -1.918999         2.775416         1.638730
 C        -1.249260         2.093847         0.325985
 C        -0.511601         1.003492         1.269957
 O         0.089159        -0.087164         0.597307
 C        -1.667159         0.421236         2.180781
 C        -2.065977         1.744080         2.751213
 C        -0.838729         2.644142         2.713072
 C         0.304281         1.778282         2.240909
 H        -2.465319         4.467244         0.988762
 H        -1.893588         1.675731        -0.489490
 H        -0.397615         2.705504        -0.180708
 H         0.962115         0.164388         0.389413
 H        -2.420946         0.081596         1.493875
 H        -1.529464        -0.368516         2.935658
 H        -2.703907         1.953993         3.626062
 H        -0.606073         3.280158         3.577079
 H         0.970546         2.437343         1.664315
 H         0.815061         1.236746         3.049606
