19
Iteration:  2467
 O        -2.648954         3.964447         1.515488
 C        -2.014522         2.707758         1.653597
 C        -1.441062         1.897369         0.453758
 C        -0.539017         0.930636         1.266288
 O         0.101312        -0.083062         0.457029
 C        -1.571460         0.443560         2.337887
 C        -2.009280         1.791735         2.903089
 C        -0.822243         2.711788         2.656706
 C         0.343589         1.964819         2.116307
 H        -3.527616         3.708265         1.156833
 H        -2.220149         1.350752        -0.044183
 H        -0.875208         2.367657        -0.483234
 H         0.390857        -0.946252         0.972710
 H        -2.499861        -0.173961         2.068550
 H        -1.021011        -0.179887         3.078889
 H        -2.584213         1.888481         3.798517
 H        -0.577856         3.707641         3.042871
 H         0.951339         2.577679         1.371230
 H         1.051514         1.633308         2.934677
