19
Iteration:  3740charge 0 multiplicity 1
 O        -2.688177         3.800916         1.397474
 C        -1.843501         2.800398         1.704921
 C        -1.559151         1.850315         0.486679
 C        -0.608967         0.960343         1.250654
 O         0.014480        -0.139481         0.546704
 C        -1.498526         0.420198         2.290978
 C        -2.035307         1.788338         2.802698
 C        -0.790947         2.722072         2.770660
 C         0.366478         2.071133         2.067518
 H        -2.398567         4.607671         1.915904
 H        -2.483853         1.299002         0.178240
 H        -1.126060         2.402418        -0.382192
 H         0.987586         0.042078         0.688570
 H        -2.276045        -0.228012         1.808705
 H        -0.961818        -0.127321         3.100107
 H        -2.924104         2.021356         3.474247
 H        -0.678390         3.376400         3.635023
 H         0.877923         2.697693         1.371176
 H         1.070206         1.366013         2.718076
