19
Iteration:  4068
 O        -2.873129         3.898923         1.499291
 C        -1.912618         2.760841         1.631239
 C        -1.447563         1.885704         0.453610
 C        -0.579132         0.888024         1.285272
 O         0.021646        -0.133255         0.509014
 C        -1.469568         0.396635         2.433009
 C        -1.905086         1.846177         2.868616
 C        -0.756370         2.739219         2.587186
 C         0.282466         1.942623         2.033771
 H        -2.269461         4.631356         1.730299
 H        -2.192219         1.369188        -0.208254
 H        -0.808035         2.579849        -0.172376
 H         1.009619        -0.258867         0.810295
 H        -2.450635        -0.066604         2.029144
 H        -1.091775        -0.181323         3.366316
 H        -2.670133         2.032477         3.698777
 H        -0.512459         3.658031         3.119976
 H         0.905676         2.528826         1.313407
 H         0.819036         1.339844         2.772393
