19
Iteration:   268
 O        -2.557483         3.922922         1.488718
 C        -1.842558         2.763490         1.681310
 C        -1.405491         1.954437         0.405026
 C        -0.590838         0.970356         1.316570
 O         0.071444         0.150913         0.418456
 C        -1.567547         0.362210         2.304962
 C        -2.132631         1.714127         2.742309
 C        -0.882169         2.546157         2.854679
 C         0.246884         1.842470         2.217165
 H        -3.176764         3.799150         0.788943
 H        -2.183613         1.480192        -0.131018
 H        -0.588299         2.458407        -0.119341
 H         0.981703         0.161503         0.701190
 H        -2.391821        -0.132547         1.812786
 H        -1.081394        -0.254581         3.088410
 H        -3.069181         1.747929         3.366935
 H        -0.698780         3.519154         3.356133
 H         0.913571         2.444784         1.606532
 H         0.838675         1.163165         2.862109
