19
Iteration:   290charge 0 multiplicity 1
 O        -2.725639         3.918503         1.492111
 C        -1.958731         2.791891         1.690244
 C        -1.250309         2.093413         0.515818
 C        -0.523881         0.957190         1.268641
 O         0.082159        -0.046999         0.395768
 C        -1.706320         0.350320         2.223358
 C        -2.031384         1.739297         2.808501
 C        -0.835212         2.705609         2.684229
 C         0.320427         1.784969         2.281424
 H        -3.568809         3.577749         1.054657
 H        -1.876419         1.619240        -0.201110
 H        -0.481441         2.833603         0.197070
 H         1.056010         0.121755         0.502120
 H        -2.471673        -0.188339         1.651877
 H        -1.213855        -0.278846         2.982591
 H        -2.743614         2.019151         3.626288
 H        -0.780124         3.319765         3.613634
 H         1.153676         2.212398         1.719544
 H         0.718053         1.151677         3.085785
