19
Iteration:  3315charge 0 multiplicity 1
 O        -2.755478         3.931128         1.515111
 C        -1.883699         2.796964         1.641715
 C        -1.370495         1.869138         0.461567
 C        -0.555812         0.897614         1.343472
 O         0.094447        -0.034993         0.474537
 C        -1.654403         0.415186         2.331992
 C        -2.109926         1.801165         2.752088
 C        -0.760795         2.737036         2.728714
 C         0.370351         1.835630         2.126454
 H        -3.626372         3.589307         1.837203
 H        -2.024264         1.415820        -0.286192
 H        -0.468684         2.255911        -0.188956
 H         0.852653         0.433305         0.099315
 H        -2.338992        -0.269426         1.847230
 H        -1.251065        -0.100330         3.236970
 H        -2.674899         1.943870         3.645766
 H        -0.545571         3.613770         3.315003
 H         0.776091         2.497726         1.303798
 H         1.125663         1.450822         2.834202
