19
Iteration:  3667charge 0 multiplicity 1
 O        -2.817984         3.725017         1.501764
 C        -1.826742         2.817105         1.663624
 C        -1.437622         1.867605         0.413654
 C        -0.589486         0.993891         1.252387
 O         0.011599        -0.123232         0.560978
 C        -1.532371         0.497036         2.312882
 C        -1.972765         1.846448         2.807080
 C        -0.737492         2.756109         2.818651
 C         0.343817         1.912465         2.114771
 H        -2.404497         4.386267         0.896585
 H        -2.354762         1.544193        -0.066346
 H        -0.879553         2.306251        -0.504166
 H         0.109176         0.032018        -0.331413
 H        -2.324929        -0.097784         1.859448
 H        -0.998390        -0.239632         3.014966
 H        -2.811764         2.004886         3.550622
 H        -0.627774         3.572657         3.558392
 H         1.113013         2.584365         1.598581
 H         0.783689         1.383104         2.942613
