19
Iteration:  1267
 O        -2.769588         3.888740         1.370923
 C        -1.903540         2.797120         1.640410
 C        -1.380497         1.979856         0.538931
 C        -0.536510         0.913478         1.298400
 O        -0.023664         0.052837         0.390081
 C        -1.596984         0.410529         2.295541
 C        -1.893552         1.749753         2.826493
 C        -0.764264         2.782519         2.714809
 C         0.376307         1.800425         2.239581
 H        -3.680946         3.632088         1.554427
 H        -2.223847         1.473486        -0.030145
 H        -0.714723         2.499560        -0.146950
 H         0.346158        -0.828573         0.721170
 H        -2.391543        -0.114159         1.772057
 H        -1.352684        -0.221318         3.178017
 H        -2.512292         1.792717         3.710625
 H        -0.701118         3.376985         3.662829
 H         1.259971         2.245875         1.679495
 H         0.727804         1.288221         3.168337
