19
Iteration:  3756charge 0 multiplicity 1
 O        -2.718281         3.895710         1.352172
 C        -1.961831         2.679276         1.675763
 C        -1.467305         1.932022         0.556769
 C        -0.472850         0.936685         1.271747
 O         0.052068        -0.071087         0.474085
 C        -1.601256         0.429232         2.428108
 C        -2.081646         1.762220         2.897125
 C        -0.804779         2.686546         2.708641
 C         0.359921         1.937175         2.020531
 H        -2.359696         4.742608         1.715129
 H        -2.240003         1.361423         0.016993
 H        -1.040133         2.490533        -0.294864
 H         0.973119        -0.119645         0.414151
 H        -2.295197        -0.261990         1.948236
 H        -1.094891        -0.168005         3.248275
 H        -2.593955         1.904613         3.806036
 H        -0.629376         3.589470         3.296614
 H         0.887204         2.670911         1.341975
 H         1.073871         1.631789         2.687676
