19
Iteration:   452charge 0 multiplicity 1
 O        -2.744319         3.888558         1.673342
 C        -1.887953         2.839750         1.651091
 C        -1.248799         2.093957         0.388812
 C        -0.519077         0.977654         1.242562
 O         0.078027        -0.097114         0.665836
 C        -1.621770         0.409966         2.075334
 C        -2.101445         1.732132         2.633769
 C        -0.870426         2.679838         2.718219
 C         0.344598         1.800034         2.231510
 H        -3.605152         3.545826         1.407769
 H        -1.989219         1.755977        -0.321474
 H        -0.604734         2.880583         0.007027
 H         0.923328         0.048030         0.313034
 H        -2.355524         0.011757         1.399228
 H        -1.316473        -0.388932         2.779687
 H        -2.826118         1.828444         3.420273
 H        -0.883175         3.372867         3.554527
 H         1.222045         2.150501         1.737575
 H         0.629213         1.135474         3.097637
