19
Iteration:   121
 O        -2.610424         4.036231         1.565864
 C        -1.894656         2.816367         1.635127
 C        -1.477247         1.898977         0.450547
 C        -0.574222         0.918371         1.268006
 O         0.149918        -0.015431         0.437140
 C        -1.528191         0.365633         2.322710
 C        -2.155400         1.727444         2.777314
 C        -0.887057         2.559873         2.759349
 C         0.321354         1.920118         2.101858
 H        -3.576939         3.783824         1.443423
 H        -2.304505         1.354772         0.021733
 H        -0.846227         2.358045        -0.292120
 H         1.151693         0.135232         0.556049
 H        -2.266104        -0.288358         1.859905
 H        -1.117063        -0.284501         3.076782
 H        -2.858161         1.997429         3.598189
 H        -0.680553         3.345294         3.520192
 H         0.913829         2.703609         1.647553
 H         0.973901         1.485750         2.847766
