19
Iteration:  1154
 O        -2.660245         3.849712         1.361867
 C        -1.918827         2.781180         1.685379
 C        -1.401681         1.955078         0.573859
 C        -0.574616         0.899016         1.338938
 O        -0.005636         0.031326         0.394998
 C        -1.560285         0.386039         2.381830
 C        -2.026953         1.778373         2.773442
 C        -0.783546         2.771374         2.731073
 C         0.356477         1.778118         2.208644
 H        -3.639713         3.691723         1.420545
 H        -2.129157         1.572338        -0.128370
 H        -0.767350         2.664226        -0.028245
 H         0.855377         0.483069         0.025590
 H        -2.375821        -0.095196         1.741596
 H        -1.234637        -0.286316         3.169863
 H        -2.689855         1.981251         3.668450
 H        -0.708084         3.606225         3.433679
 H         0.905472         2.260053         1.383475
 H         1.025775         1.235390         2.992625
