19
Iteration:  4883charge 0 multiplicity 1
 O        -2.645387         3.816950         1.404089
 C        -1.895167         2.699662         1.697734
 C        -1.530131         1.859694         0.512270
 C        -0.590071         0.923057         1.239258
 O        -0.037974        -0.141599         0.467117
 C        -1.434218         0.376475         2.504683
 C        -1.996838         1.795290         2.868951
 C        -0.852669         2.785175         2.711883
 C         0.340878         2.164303         1.916967
 H        -2.176424         4.624348         1.736558
 H        -2.425679         1.446900        -0.040745
 H        -1.033438         2.658276        -0.106108
 H         0.416301        -0.794319         1.056347
 H        -2.084671        -0.391676         2.143039
 H        -0.708392         0.008959         3.304015
 H        -2.743042         1.787392         3.717149
 H        -0.931899         3.698335         3.349909
 H         0.666713         2.667044         1.096631
 H         1.121332         1.640084         2.484217
