19
Iteration:  2936charge 0 multiplicity 1
 O        -2.645019         3.950389         1.409258
 C        -1.869502         2.741388         1.692780
 C        -1.353386         1.878504         0.546466
 C        -0.527615         0.869982         1.279129
 O         0.068629         0.040130         0.321548
 C        -1.613120         0.366763         2.345290
 C        -2.073939         1.829399         2.802498
 C        -0.877540         2.707789         2.810499
 C         0.329304         1.889836         2.166613
 H        -3.565799         3.822976         1.078010
 H        -2.290688         1.283119         0.113093
 H        -0.831155         2.405388        -0.246702
 H         0.600800        -0.588934         0.954307
 H        -2.383237        -0.321327         1.973763
 H        -1.183383        -0.105825         3.294758
 H        -2.819452         2.090058         3.583694
 H        -0.689488         3.486787         3.550199
 H         0.892451         2.615867         1.491882
 H         1.001425         1.467548         2.894338
