19
Iteration:  1735
 O        -2.733051         3.804559         1.710904
 C        -1.850734         2.770388         1.559831
 C        -1.407411         1.952980         0.358295
 C        -0.527530         0.971930         1.269777
 O         0.180561        -0.142084         0.656573
 C        -1.662435         0.486385         2.255602
 C        -2.073520         1.894567         2.732910
 C        -0.854480         2.666786         2.691667
 C         0.272311         1.830395         2.113196
 H        -2.337250         4.635297         1.400207
 H        -2.317733         1.580610        -0.074032
 H        -0.790797         2.505475        -0.453887
 H         0.604490         0.173629        -0.104536
 H        -2.399566        -0.218538         1.787754
 H        -1.204037        -0.079927         3.009915
 H        -2.826374         2.153003         3.489836
 H        -0.918752         3.642234         3.207352
 H         0.974720         2.329322         1.466163
 H         0.973519         1.188770         2.740897
