19
Iteration:   490
 O        -2.677384         3.960025         1.497952
 C        -1.892067         2.763908         1.723190
 C        -1.276406         2.041739         0.521669
 C        -0.535874         0.916764         1.233318
 O         0.233077        -0.107355         0.511547
 C        -1.652785         0.408204         2.138374
 C        -2.171223         1.720192         2.688603
 C        -0.887036         2.663452         2.768974
 C         0.263967         1.841758         2.275100
 H        -3.379485         4.159518         2.116559
 H        -2.176801         1.832045        -0.154770
 H        -0.526595         2.589762        -0.104337
 H         0.751274         0.476412        -0.111052
 H        -2.519744         0.053046         1.486074
 H        -1.473810        -0.359978         2.886533
 H        -2.995356         1.881409         3.409209
 H        -0.872346         3.238665         3.697428
 H         0.968846         2.436190         1.635000
 H         0.832519         1.174481         2.906821
