19
Iteration:   760charge 0 multiplicity 1
 O        -2.688708         3.956119         1.414712
 C        -1.847424         2.815347         1.671066
 C        -1.272005         2.017621         0.503909
 C        -0.498587         0.910035         1.342041
 O         0.114639        -0.036524         0.417718
 C        -1.652273         0.393234         2.137289
 C        -2.127545         1.742843         2.751622
 C        -0.901465         2.602437         2.866676
 C         0.305644         1.806426         2.321453
 H        -3.619961         3.657129         1.533379
 H        -2.030158         1.677502        -0.195078
 H        -0.626355         2.673979        -0.019664
 H         0.336130         0.568448        -0.261868
 H        -2.408272        -0.090087         1.469229
 H        -1.343445        -0.205709         2.977023
 H        -2.764241         1.859437         3.613636
 H        -0.702956         3.360669         3.620920
 H         1.048440         2.350857         1.764545
 H         0.899060         1.378185         3.158624
