19
Iteration:  1474charge 0 multiplicity 1
 O        -2.719524         3.989124         1.740358
 C        -1.982969         2.791080         1.635448
 C        -1.445408         1.918954         0.231368
 C        -0.594477         0.946048         1.183006
 O         0.258495        -0.150932         0.721804
 C        -1.587757         0.485718         2.224812
 C        -2.086158         1.759738         2.778563
 C        -0.847438         2.680338         2.597458
 C         0.312840         1.895193         2.082003
 H        -2.082479         4.746360         1.848576
 H        -2.196801         1.353545        -0.218040
 H        -0.765329         2.530903        -0.332053
 H        -0.341671        -0.942495         0.542404
 H        -2.382121        -0.233539         1.912384
 H        -0.968475        -0.132458         2.938457
 H        -2.725682         1.709205         3.667702
 H        -0.626071         3.519337         3.232749
 H         1.069645         2.493386         1.593890
 H         0.845517         1.224674         2.743197
