19
Iteration:  2160charge 0 multiplicity 1
 O        -2.812225         3.932964         1.523306
 C        -1.865781         2.761558         1.656858
 C        -1.450453         1.986193         0.540908
 C        -0.487827         0.886856         1.278709
 O         0.100990        -0.108433         0.535911
 C        -1.518439         0.467442         2.314272
 C        -2.035963         1.765909         2.750020
 C        -0.787902         2.730282         2.650160
 C         0.375668         1.946849         2.109090
 H        -3.682034         3.514235         1.453478
 H        -2.277295         1.444964        -0.012163
 H        -0.718309         2.381329        -0.248716
 H        -0.428807        -0.832336         0.349760
 H        -2.290199        -0.126865         1.728876
 H        -1.082171        -0.095404         3.127566
 H        -2.590658         1.969287         3.616333
 H        -0.456833         3.508846         3.307304
 H         0.901094         2.577026         1.385824
 H         0.933968         1.334148         2.856394
