19
Iteration:  1104
 O        -2.682716         3.796953         1.701396
 C        -1.798619         2.810106         1.601948
 C        -1.377690         2.088294         0.412086
 C        -0.584135         0.927658         1.217131
 O         0.094251        -0.179927         0.655084
 C        -1.666192         0.487628         2.182143
 C        -2.084878         1.783168         2.722089
 C        -0.777152         2.710127         2.685631
 C         0.262792         1.908458         2.092290
 H        -3.505083         3.548878         1.213847
 H        -2.335672         1.721075        -0.121780
 H        -0.780363         2.684920        -0.267856
 H         0.992843        -0.149103         0.881310
 H        -2.294329        -0.261215         1.745191
 H        -0.972916        -0.041516         2.901046
 H        -2.829463         2.097604         3.425647
 H        -0.559211         3.525073         3.343461
 H         0.963959         2.462467         1.458862
 H         0.720939         1.350954         2.874299
