19
Iteration:  1956
 O        -2.717662         3.869987         1.423423
 C        -1.919222         2.797561         1.715024
 C        -1.359229         1.876595         0.546086
 C        -0.538627         0.906732         1.346804
 O         0.101780         0.013530         0.410551
 C        -1.657935         0.404128         2.324188
 C        -2.019530         1.811305         2.828026
 C        -0.812044         2.722325         2.729218
 C         0.396975         1.924273         2.077115
 H        -3.639761         3.591321         1.494851
 H        -2.074203         1.398543        -0.028562
 H        -0.755316         2.401273        -0.185011
 H        -0.156246        -0.853530         0.626049
 H        -2.451764        -0.133121         1.804386
 H        -1.125297        -0.196794         3.060655
 H        -2.746150         1.888878         3.673287
 H        -0.513938         3.613714         3.347727
 H         0.804199         2.532823         1.279796
 H         1.108997         1.713285         2.891880
