19
Iteration:  2693
 O        -2.671770         3.749442         1.446362
 C        -1.876097         2.693186         1.673961
 C        -1.387610         1.981516         0.472620
 C        -0.604893         0.903549         1.311823
 O         0.040910        -0.006660         0.380045
 C        -1.725203         0.443924         2.290347
 C        -1.987529         1.842207         2.869024
 C        -0.809420         2.815849         2.634951
 C         0.483281         1.888926         2.263484
 H        -3.655458         3.687189         1.532941
 H        -2.159150         1.424319        -0.052018
 H        -0.883995         2.447011        -0.216921
 H         0.733825        -0.428997         0.792700
 H        -2.636661         0.219278         1.741889
 H        -1.424238        -0.177602         3.149536
 H        -2.656043         2.208679         3.695145
 H        -0.811418         3.660369         3.312542
 H         1.242385         2.470601         1.671257
 H         0.913501         1.175222         3.056896
