19
Iteration:  4928
 O        -2.913966         3.698052         1.615363
 C        -1.895160         2.733085         1.628991
 C        -1.523456         1.886006         0.429532
 C        -0.593231         0.920079         1.248136
 O         0.113322        -0.089589         0.473643
 C        -1.637611         0.528609         2.419486
 C        -1.930605         1.961351         2.834699
 C        -0.648195         2.845605         2.574035
 C         0.418551         1.858698         2.063982
 H        -2.504311         4.549735         1.281773
 H        -2.346347         1.290686        -0.003781
 H        -0.807126         2.239361        -0.341972
 H         0.489665        -0.817522         1.059518
 H        -2.520242         0.150823         1.870993
 H        -1.309234        -0.161091         3.232049
 H        -2.523338         2.303036         3.663870
 H        -0.259387         3.674250         3.108224
 H         1.152818         2.326825         1.498174
 H         0.820338         1.304553         2.928330
