19
Iteration:  1870
 O        -2.668086         3.849938         1.650723
 C        -1.830730         2.757455         1.626555
 C        -1.434732         1.922644         0.374421
 C        -0.554523         1.011477         1.190624
 O         0.128860        -0.166689         0.751919
 C        -1.625301         0.443620         2.230597
 C        -2.053157         1.820839         2.784177
 C        -0.799527         2.759280         2.739495
 C         0.320498         1.939830         1.996647
 H        -3.525764         3.417276         1.333287
 H        -2.379959         1.491920        -0.076174
 H        -0.803026         2.506827        -0.258850
 H         0.122609        -0.185844        -0.254924
 H        -2.436232         0.042279         1.707908
 H        -1.250120        -0.379309         2.847375
 H        -2.858297         1.931303         3.574484
 H        -0.766960         3.710314         3.383285
 H         0.949697         2.626429         1.427198
 H         0.990423         1.445231         2.689768
