19
Iteration:  2608charge 0 multiplicity 1
 O        -2.685814         4.032257         1.557538
 C        -1.967821         2.814696         1.656243
 C        -1.481109         1.826412         0.441762
 C        -0.526905         0.883046         1.281383
 O         0.179926        -0.030842         0.544169
 C        -1.656608         0.381959         2.203969
 C        -1.966938         1.747233         2.862584
 C        -0.776399         2.774322         2.606860
 C         0.328825         1.914147         2.153717
 H        -3.599016         3.709713         1.387097
 H        -2.155177         1.110548        -0.129245
 H        -0.844865         2.488679        -0.348596
 H        -0.121115        -0.982619         0.813693
 H        -2.526971        -0.103196         1.755234
 H        -1.282044        -0.383583         2.954530
 H        -2.535810         1.922011         3.814668
 H        -0.579517         3.648413         3.242920
 H         1.134753         2.434781         1.515018
 H         0.850883         1.444970         2.999019
