19
Iteration:  1705
 O        -2.831206         3.924321         1.470540
 C        -1.945266         2.788685         1.689992
 C        -1.344118         1.999761         0.519661
 C        -0.492208         0.940307         1.302327
 O         0.108020        -0.132097         0.505035
 C        -1.654173         0.373519         2.219146
 C        -1.965810         1.795167         2.827402
 C        -0.748440         2.769180         2.752060
 C         0.344744         1.824347         2.211185
 H        -2.679425         4.074730         0.518745
 H        -2.202734         1.521922         0.018005
 H        -0.796357         2.670716        -0.179662
 H        -0.147337        -0.031929        -0.457785
 H        -2.510988        -0.026701         1.746623
 H        -1.236603        -0.366691         2.916747
 H        -2.686733         1.936829         3.642552
 H        -0.750097         3.555339         3.463042
 H         1.157531         2.201842         1.559864
 H         0.763195         1.296932         3.021739
