19
Iteration:  3104
 O        -2.735804         3.934124         1.552447
 C        -1.952601         2.748554         1.697340
 C        -1.360989         2.056272         0.444903
 C        -0.601883         0.918179         1.216784
 O         0.240697        -0.124471         0.509791
 C        -1.657771         0.405569         2.227334
 C        -2.028130         1.838675         2.872475
 C        -0.822018         2.748171         2.654024
 C         0.308278         1.833975         2.126457
 H        -3.547306         3.592471         1.107039
 H        -2.198428         1.529857        -0.097650
 H        -0.654179         2.617148        -0.196296
 H         0.491408        -0.649001         1.348112
 H        -2.430571         0.042313         1.551631
 H        -1.317609        -0.384097         2.927341
 H        -2.551498         1.955447         3.798706
 H        -0.493709         3.453807         3.399601
 H         1.002926         2.437212         1.486365
 H         0.681124         1.264934         2.915166
