19
Iteration:   795charge 0 multiplicity 1
 O        -2.567774         3.887227         1.482611
 C        -1.899367         2.733039         1.694014
 C        -1.349497         2.048488         0.488641
 C        -0.513032         0.930013         1.331357
 O         0.087593         0.049971         0.448815
 C        -1.601037         0.398791         2.197960
 C        -2.151075         1.726846         2.762174
 C        -0.883831         2.642320         2.769455
 C         0.215960         1.796048         2.267970
 H        -2.861265         3.900545         0.535874
 H        -2.152999         1.781782        -0.192356
 H        -0.719229         2.756627         0.019128
 H         0.841665         0.518354         0.078748
 H        -2.315433        -0.342091         1.684739
 H        -1.145126        -0.234193         2.968209
 H        -2.854085         1.769757         3.651226
 H        -0.834485         3.412957         3.552305
 H         1.003615         2.367668         1.670894
 H         0.578174         1.167320         3.103487
