19
Iteration:  4087
 O        -2.904928         3.788018         1.449328
 C        -1.922685         2.807933         1.685983
 C        -1.468200         1.953567         0.462153
 C        -0.648655         0.869131         1.238482
 O         0.104410        -0.098661         0.501087
 C        -1.615069         0.491594         2.448066
 C        -1.952230         1.906416         2.854891
 C        -0.693710         2.813280         2.584046
 C         0.472233         1.752915         2.025598
 H        -2.978900         4.398059         2.180532
 H        -2.435011         1.627587         0.010657
 H        -0.847785         2.328201        -0.323673
 H         1.036239        -0.081903         0.955474
 H        -2.422682        -0.152147         2.130350
 H        -0.968873         0.096381         3.179996
 H        -2.553373         2.266940         3.754589
 H        -0.403136         3.476065         3.399890
 H         1.080921         2.057414         1.176046
 H         0.905177         1.211497         2.837370
