19
Iteration:   296
 O        -2.767833         3.904101         1.496010
 C        -1.947286         2.794806         1.757853
 C        -1.267610         2.101209         0.518417
 C        -0.495492         0.925444         1.258816
 O         0.105234        -0.132550         0.381845
 C        -1.677419         0.389988         2.190948
 C        -2.019469         1.798319         2.763700
 C        -0.820659         2.700309         2.723940
 C         0.290105         1.816606         2.287247
 H        -3.649398         3.653610         1.200565
 H        -1.856021         1.731519        -0.380368
 H        -0.521684         2.857122         0.214407
 H         1.102216         0.044032         0.431444
 H        -2.573187         0.013444         1.668786
 H        -1.299418        -0.359201         2.919347
 H        -2.760934         1.952902         3.519822
 H        -0.708728         3.404333         3.517601
 H         1.193760         2.248059         1.810615
 H         0.601720         1.189729         3.147273
