19
Iteration:    79
 O        -2.633515         3.899688         1.660359
 C        -1.949636         2.693939         1.644189
 C        -1.475829         1.947579         0.385035
 C        -0.510999         1.008134         1.174881
 O         0.281075        -0.009585         0.522813
 C        -1.650730         0.481509         2.308543
 C        -2.016848         1.799715         2.938910
 C        -0.908013         2.612414         2.667979
 C         0.273697         1.903778         2.053290
 H        -3.390712         3.840189         1.025550
 H        -2.247153         1.390922        -0.132088
 H        -0.913897         2.584804        -0.318949
 H        -0.012522        -0.907107         0.743665
 H        -2.426899         0.036726         1.721598
 H        -1.142683        -0.346924         2.888217
 H        -2.872240         2.013450         3.606562
 H        -0.630320         3.414219         3.362217
 H         0.921986         2.531953         1.507330
 H         0.900613         1.244184         2.708592
