19
Iteration:  3622
 O        -2.726872         3.957802         1.526280
 C        -1.953323         2.766585         1.641345
 C        -1.366068         1.876195         0.471588
 C        -0.624982         0.851151         1.286267
 O         0.107197        -0.096893         0.542770
 C        -1.580188         0.402321         2.387316
 C        -1.923511         1.757246         2.891516
 C        -0.788949         2.808360         2.641855
 C         0.242503         1.897947         2.052617
 H        -3.107928         4.180113         0.669222
 H        -2.043156         1.367332        -0.208763
 H        -0.627310         2.563564        -0.161977
 H         0.518282         0.423124        -0.100452
 H        -2.436015        -0.208919         2.052480
 H        -1.089807        -0.290279         3.159829
 H        -2.595730         1.788799         3.730618
 H        -0.904343         3.556822         3.387336
 H         0.890784         2.481780         1.301883
 H         0.917690         1.443305         2.714633
