19
Iteration:   374
 O        -2.546054         4.062576         1.502232
 C        -1.964097         2.768959         1.656384
 C        -1.375400         1.936450         0.443674
 C        -0.530587         0.967600         1.244871
 O         0.246887        -0.061290         0.401825
 C        -1.648407         0.371739         2.223306
 C        -2.108125         1.685664         2.797644
 C        -0.941373         2.622391         2.830543
 C         0.217595         1.881912         2.341160
 H        -3.365318         3.941833         1.034420
 H        -2.151434         1.563964        -0.202043
 H        -0.772924         2.471972        -0.296545
 H         0.638716         0.503354        -0.278348
 H        -2.332940        -0.206912         1.650510
 H        -1.309714        -0.244572         3.100058
 H        -2.880074         1.647686         3.614140
 H        -0.772914         3.322650         3.702006
 H         0.980534         2.527915         1.944169
 H         0.641651         1.040093         2.928351
