19
Iteration:  3425charge 0 multiplicity 1
 O        -2.873622         3.864050         1.383994
 C        -1.950222         2.779171         1.664603
 C        -1.493535         1.955347         0.449757
 C        -0.555525         0.960807         1.239338
 O         0.043403        -0.080195         0.473035
 C        -1.505198         0.438448         2.285390
 C        -1.983595         1.806768         2.827723
 C        -0.744193         2.699189         2.718226
 C         0.371322         1.812023         2.229620
 H        -2.433452         4.625927         1.769563
 H        -2.210939         1.276069         0.035744
 H        -0.863920         2.593379        -0.259008
 H         1.041459        -0.070786         0.708174
 H        -2.271627        -0.102022         1.808364
 H        -1.020176        -0.059396         3.122228
 H        -2.456752         1.862427         3.842034
 H        -0.511946         3.539202         3.396953
 H         1.275669         2.501544         1.826706
 H         0.724538         1.266760         3.157257
