19
Iteration:   580charge 0 multiplicity 1
 O        -2.766534         3.905624         1.642129
 C        -1.921616         2.745260         1.698746
 C        -1.231752         2.130613         0.374042
 C        -0.528183         1.010574         1.169571
 O         0.171791        -0.094770         0.687876
 C        -1.669016         0.400739         2.065100
 C        -2.140552         1.698174         2.675821
 C        -0.858727         2.630152         2.756990
 C         0.229934         1.771027         2.241405
 H        -2.277190         4.733464         1.902664
 H        -1.968817         1.750572        -0.364028
 H        -0.525096         2.810238        -0.145693
 H         0.883843         0.111776        -0.029038
 H        -2.391218        -0.115914         1.419513
 H        -1.233952        -0.424358         2.694073
 H        -2.783209         1.858941         3.516327
 H        -0.883312         3.520133         3.375722
 H         1.020243         2.389236         1.765071
 H         0.779637         1.147545         2.925100
