19
Iteration:  3892
 O        -2.791259         3.839431         1.457118
 C        -1.832075         2.788362         1.593262
 C        -1.564528         1.796441         0.610334
 C        -0.540190         0.854396         1.336668
 O         0.088848         0.055576         0.326329
 C        -1.590534         0.377313         2.416637
 C        -1.996148         1.854507         2.734252
 C        -0.720606         2.783600         2.701705
 C         0.318085         1.915302         2.183946
 H        -2.274819         4.658450         1.459969
 H        -2.511678         1.302488         0.310410
 H        -1.112347         2.150750        -0.330311
 H         0.685306        -0.625715         0.859439
 H        -2.237377        -0.281120         1.846662
 H        -1.236069        -0.184641         3.198605
 H        -2.748345         2.086660         3.457918
 H        -0.506301         3.695709         3.296421
 H         1.064513         2.376017         1.619795
 H         0.896371         1.465262         2.924930
