19
Iteration:   337charge 0 multiplicity 1
 O        -2.704633         3.852850         1.618496
 C        -1.865627         2.751142         1.592336
 C        -1.278062         2.121480         0.421536
 C        -0.570896         0.995325         1.237373
 O         0.074929        -0.027801         0.732206
 C        -1.705069         0.405223         2.106229
 C        -2.107455         1.729341         2.573082
 C        -0.758405         2.607468         2.779582
 C         0.327802         1.861703         2.187044
 H        -3.513034         3.516667         2.005257
 H        -2.133251         1.713415        -0.167464
 H        -0.471504         2.719806         0.062372
 H         0.553077         0.240959        -0.019169
 H        -2.407099        -0.066998         1.316661
 H        -1.399957        -0.274298         2.893847
 H        -2.782884         1.783017         3.385216
 H        -0.566173         3.226402         3.619599
 H         1.198472         2.455598         1.658005
 H         0.765425         1.227176         2.983705
