19
Iteration:  1093charge 0 multiplicity 1
 O        -2.697950         3.959420         1.707111
 C        -1.866027         2.787234         1.664213
 C        -1.364539         2.006312         0.375034
 C        -0.584948         0.992049         1.212892
 O         0.134839        -0.121678         0.672995
 C        -1.671498         0.383997         2.278986
 C        -2.116334         1.758909         2.678658
 C        -0.804669         2.683529         2.625241
 C         0.369855         1.842600         2.036814
 H        -3.571506         3.643984         1.323996
 H        -2.232617         1.520794        -0.200779
 H        -0.794604         2.651350        -0.277767
 H         1.097982         0.080240         0.915276
 H        -2.516875        -0.078921         1.767726
 H        -1.293080        -0.311605         3.081432
 H        -2.940162         1.913405         3.378787
 H        -0.664658         3.441276         3.369507
 H         1.133369         2.346369         1.426439
 H         0.926784         1.336549         2.788672
