19
Iteration:  2898charge 0 multiplicity 1
 O        -2.563011         3.911900         1.489133
 C        -1.975141         2.730107         1.664349
 C        -1.457633         1.912222         0.492097
 C        -0.608707         0.950157         1.208254
 O         0.143641         0.055798         0.500676
 C        -1.636753         0.343826         2.322391
 C        -2.009810         1.797603         2.845670
 C        -0.772298         2.730546         2.670954
 C         0.273809         1.869613         2.139822
 H        -3.407123         3.648809         1.014998
 H        -2.277304         1.348807         0.027746
 H        -0.917229         2.672488        -0.238175
 H         0.662806        -0.495327         1.055215
 H        -2.403174        -0.247341         1.814537
 H        -1.065526        -0.247306         2.991627
 H        -2.709894         2.088308         3.624448
 H        -0.952626         3.550638         3.348621
 H         0.986025         2.348039         1.523235
 H         0.715043         1.250049         2.985561
