19
Iteration:   318
 O        -2.825973         3.844542         1.587705
 C        -1.798248         2.862082         1.661497
 C        -1.222561         2.120128         0.354980
 C        -0.489693         1.010068         1.189273
 O         0.070252        -0.203554         0.576884
 C        -1.696321         0.489782         2.067446
 C        -2.044360         1.784812         2.796669
 C        -0.871147         2.674635         2.822443
 C         0.338952         1.796032         2.286391
 H        -3.623769         3.348746         1.900626
 H        -2.062657         1.570989        -0.131758
 H        -0.559550         2.705575        -0.297843
 H         0.889182         0.145026         0.250894
 H        -2.449052         0.064615         1.374862
 H        -1.283082        -0.310219         2.708483
 H        -2.954643         1.883006         3.382760
 H        -0.764455         3.448116         3.568393
 H         1.071986         2.389550         1.708935
 H         0.902025         1.050012         2.872340
