19
Iteration:  3975charge 0 multiplicity 1
 O        -2.809076         3.813017         1.501081
 C        -1.879060         2.695457         1.606252
 C        -1.417446         1.850546         0.371235
 C        -0.511611         0.937267         1.270889
 O         0.041444        -0.030045         0.487970
 C        -1.624239         0.528258         2.359555
 C        -1.953327         1.860129         2.850388
 C        -0.721632         2.808903         2.704469
 C         0.422062         1.887661         2.142814
 H        -3.475093         3.634967         2.195217
 H        -2.221422         1.226670        -0.049663
 H        -0.953051         2.410571        -0.457777
 H        -0.188919        -0.839189         0.852886
 H        -2.462508         0.057492         1.852762
 H        -1.076972        -0.044218         3.152717
 H        -2.731045         2.060082         3.621427
 H        -0.586500         3.795660         3.167867
 H         0.951905         2.383200         1.262830
 H         0.929400         1.374022         3.013633
