19
Iteration:   929
 O        -2.582542         3.978861         1.357774
 C        -1.984217         2.698511         1.697635
 C        -1.335247         1.943313         0.462057
 C        -0.575403         0.972456         1.295547
 O         0.157985        -0.007573         0.481908
 C        -1.652771         0.316312         2.254543
 C        -2.117001         1.690092         2.858889
 C        -0.860670         2.717094         2.750385
 C         0.292763         1.848238         2.234121
 H        -2.984233         4.391079         2.115507
 H        -2.059453         1.638090        -0.278730
 H        -0.639055         2.607895         0.050095
 H         0.286786         0.379665        -0.346859
 H        -2.470016        -0.114984         1.659210
 H        -1.280934        -0.392676         3.064736
 H        -2.871635         1.714116         3.628350
 H        -0.662780         3.504613         3.478013
 H         1.020458         2.499793         1.658469
 H         0.922520         1.396859         3.003963
