19
Iteration:  2060charge 0 multiplicity 1
 O        -2.607799         3.873038         1.316162
 C        -1.888416         2.692768         1.720832
 C        -1.475938         1.966115         0.507541
 C        -0.623205         0.972990         1.253017
 O         0.039899         0.035235         0.487957
 C        -1.456620         0.389646         2.398613
 C        -2.025678         1.756453         2.905783
 C        -0.836810         2.653317         2.674890
 C         0.332840         1.920831         2.209856
 H        -3.353567         3.495593         0.860325
 H        -2.492842         1.530189         0.048651
 H        -1.012206         2.691223        -0.278744
 H        -0.340399        -0.004722        -0.452293
 H        -2.168750        -0.422957         2.112429
 H        -0.786726        -0.082949         3.144171
 H        -2.694706         1.807173         3.805009
 H        -0.740656         3.540143         3.303946
 H         1.038847         2.615352         1.680658
 H         1.005059         1.476371         2.974711
