19
Iteration:  3680
 O        -2.890991         3.792820         1.519255
 C        -1.846411         2.780592         1.601583
 C        -1.371579         1.956317         0.433284
 C        -0.570714         0.890520         1.288728
 O         0.056768        -0.117379         0.544948
 C        -1.613237         0.398865         2.379132
 C        -1.940002         1.866839         2.881027
 C        -0.759434         2.755047         2.631535
 C         0.333401         1.889935         2.133982
 H        -2.580282         4.713880         1.412524
 H        -2.137343         1.318382        -0.102806
 H        -0.607825         2.528500        -0.223429
 H         0.294789         0.355577        -0.344439
 H        -2.453107        -0.078058         1.896038
 H        -1.112714        -0.257978         3.110941
 H        -2.743204         2.198555         3.562744
 H        -0.496058         3.618643         3.280005
 H         1.091681         2.441841         1.435498
 H         0.972628         1.285550         2.871524
