19
Iteration:  3484
 O        -2.699749         3.920358         1.503236
 C        -1.958109         2.719067         1.668992
 C        -1.469371         1.954803         0.422808
 C        -0.541970         0.968264         1.263575
 O         0.168879        -0.017379         0.479967
 C        -1.552246         0.426459         2.350552
 C        -2.036394         1.808381         2.875626
 C        -0.824631         2.757561         2.666400
 C         0.366510         1.825224         2.061179
 H        -3.643314         3.702234         1.674398
 H        -2.199974         1.301117        -0.157333
 H        -0.930546         2.548049        -0.332210
 H         0.351384        -0.770455         1.112547
 H        -2.435530        -0.113615         1.867327
 H        -1.207444        -0.295808         3.130060
 H        -2.778689         1.832174         3.641436
 H        -0.725179         3.605303         3.316990
 H         1.088697         2.343219         1.480757
 H         0.851902         1.294562         2.928674
