19
Iteration:  2285
 O        -2.857232         3.847688         1.511698
 C        -1.912521         2.866194         1.651270
 C        -1.407367         2.013238         0.452481
 C        -0.564309         0.912157         1.298877
 O         0.151978        -0.100342         0.498026
 C        -1.555357         0.420307         2.398680
 C        -1.949629         1.822431         2.762816
 C        -0.735639         2.812720         2.588338
 C         0.351003         1.836468         2.137595
 H        -3.778636         3.520475         1.551036
 H        -2.356534         1.416897         0.064497
 H        -0.760033         2.513816        -0.254975
 H        -0.462481        -0.777443         0.524079
 H        -2.326518        -0.235953         2.080959
 H        -1.007114        -0.180430         3.115162
 H        -2.499595         1.901074         3.706492
 H        -0.567729         3.425024         3.453204
 H         0.991665         2.331759         1.492109
 H         1.017999         1.335712         2.736385
