19
Iteration:  1820
 O        -2.744182         3.799462         1.348691
 C        -1.875444         2.777136         1.645394
 C        -1.328234         1.956164         0.499201
 C        -0.562782         0.919631         1.309907
 O         0.109650         0.113041         0.394762
 C        -1.638037         0.427600         2.432318
 C        -1.982379         1.793539         2.868264
 C        -0.777223         2.732196         2.661840
 C         0.268779         1.778237         2.188173
 H        -3.168568         4.242286         2.099974
 H        -2.275977         1.605882         0.048485
 H        -0.614903         2.448436        -0.202099
 H        -0.260626        -0.843091         0.342921
 H        -2.522314        -0.199560         1.982058
 H        -1.141494        -0.098054         3.301333
 H        -2.910846         1.968044         3.432368
 H        -0.393657         3.423936         3.413824
 H         0.966264         2.399113         1.524225
 H         0.898363         1.245386         2.998439
