19
Iteration:   671charge 0 multiplicity 1
 O        -2.695596         3.911170         1.374391
 C        -1.830290         2.779472         1.704980
 C        -1.302036         2.036525         0.490400
 C        -0.535863         0.973171         1.204848
 O         0.106478         0.056792         0.414413
 C        -1.623559         0.396084         2.212179
 C        -2.128931         1.658859         2.773890
 C        -0.945356         2.598996         2.897533
 C         0.254206         1.764961         2.308028
 H        -2.008168         4.575969         1.705292
 H        -2.086188         1.658327        -0.091068
 H        -0.732000         2.721612        -0.086151
 H         0.978620         0.301716         0.107758
 H        -2.327835        -0.220640         1.606685
 H        -1.236645        -0.362853         2.928456
 H        -3.032240         1.848237         3.355526
 H        -0.928993         3.289625         3.760035
 H         1.068810         2.393476         1.944615
 H         0.739933         1.209004         3.148291
