19
Iteration:  1662charge 0 multiplicity 1
 O        -2.760030         3.814217         1.430052
 C        -1.833964         2.854732         1.618112
 C        -1.344634         1.991576         0.496630
 C        -0.616306         0.903714         1.342953
 O         0.072456         0.058784         0.434868
 C        -1.630115         0.347773         2.366961
 C        -2.009541         1.790914         2.790928
 C        -0.815415         2.709471         2.784766
 C         0.366142         1.802068         2.202143
 H        -2.399750         4.423504         0.766920
 H        -2.184958         1.506387        -0.074022
 H        -0.660300         2.459445        -0.181157
 H        -0.569626        -0.438826        -0.023805
 H        -2.337230        -0.349636         1.924951
 H        -1.170004        -0.239688         3.242846
 H        -2.808067         2.091940         3.489665
 H        -0.677503         3.460846         3.548947
 H         1.024596         2.470665         1.573576
 H         1.064149         1.247159         2.776578
