19
Iteration:  1768charge 0 multiplicity 1
 O        -2.732726         3.981081         1.450366
 C        -1.942629         2.792645         1.634811
 C        -1.394198         1.986647         0.492915
 C        -0.580848         0.912617         1.307783
 O         0.073231        -0.102576         0.562951
 C        -1.561183         0.324927         2.287393
 C        -2.024017         1.713630         2.798728
 C        -0.880243         2.689958         2.673012
 C         0.329476         1.915491         2.105820
 H        -2.457042         4.794071         1.875885
 H        -2.216248         1.633346        -0.116304
 H        -0.746341         2.647342        -0.175074
 H         1.018085        -0.110748         0.721132
 H        -2.268454        -0.294700         1.685524
 H        -1.031878        -0.251481         2.995589
 H        -2.516610         1.905384         3.753468
 H        -0.761211         3.464178         3.396783
 H         0.938103         2.229644         1.294207
 H         0.900679         1.293982         2.856745
