19
Iteration:   137
 O        -2.642635         3.865024         1.468519
 C        -1.918282         2.693579         1.708286
 C        -1.343712         1.979697         0.443041
 C        -0.530423         0.973148         1.218216
 O         0.090292        -0.056816         0.406844
 C        -1.653708         0.467326         2.287705
 C        -2.063410         1.769861         2.859131
 C        -0.800232         2.701685         2.879462
 C         0.278919         1.858850         2.178170
 H        -3.595508         3.661908         1.451620
 H        -2.143454         1.545536        -0.215295
 H        -0.792693         2.707916        -0.223563
 H         0.832331         0.412189        -0.093309
 H        -2.470072        -0.214803         1.951573
 H        -1.045713        -0.037876         3.103954
 H        -2.911204         1.721516         3.515018
 H        -0.886965         3.586382         3.498226
 H         0.862125         2.533906         1.491836
 H         1.037734         1.220501         2.738065
