19
Iteration:  4357charge 0 multiplicity 1
 O        -2.744470         3.794140         1.495918
 C        -1.953420         2.670897         1.708964
 C        -1.430607         1.859607         0.431921
 C        -0.577525         0.904786         1.296125
 O        -0.215996        -0.129578         0.439624
 C        -1.400119         0.482661         2.534668
 C        -1.925236         1.882116         2.970346
 C        -0.732324         2.824565         2.573596
 C         0.432973         2.048010         1.937132
 H        -3.418656         3.550061         0.801277
 H        -2.185362         1.364558        -0.167668
 H        -0.780871         2.459290        -0.184685
 H         0.116696        -0.749224         1.024249
 H        -2.173951        -0.185339         2.181629
 H        -0.611002        -0.084269         3.126657
 H        -2.486674         2.192285         3.835131
 H        -0.474219         3.772496         3.037195
 H         0.954370         2.749837         1.385105
 H         1.126780         1.624844         2.668913
