19
Iteration:  1629
 O        -2.731758         3.909159         1.620811
 C        -2.001658         2.771855         1.589256
 C        -1.477677         1.970235         0.364303
 C        -0.549444         0.981298         1.217566
 O         0.252660        -0.130067         0.618568
 C        -1.663789         0.402221         2.215373
 C        -2.001428         1.865410         2.821955
 C        -0.836614         2.765284         2.647613
 C         0.379595         1.785774         2.180337
 H        -2.152256         4.629656         1.878364
 H        -2.241270         1.402655        -0.215471
 H        -1.022370         2.653308        -0.336268
 H        -0.180852        -0.958937         0.502555
 H        -2.467405        -0.067745         1.653188
 H        -1.173971        -0.265581         3.014461
 H        -2.788572         1.968369         3.597081
 H        -0.732240         3.604312         3.395247
 H         1.077695         2.433630         1.595851
 H         0.837100         1.032722         2.761116
