19
Iteration:  1304
 O        -2.583147         3.858383         1.391932
 C        -1.882291         2.695786         1.709734
 C        -1.439898         1.949009         0.505175
 C        -0.570192         0.893409         1.271235
 O         0.064144         0.000306         0.404646
 C        -1.642090         0.450686         2.392129
 C        -2.077990         1.767307         2.795484
 C        -0.837687         2.707547         2.743940
 C         0.308798         1.873957         2.084357
 H        -2.948877         4.183858         2.259284
 H        -2.392962         1.644007        -0.112466
 H        -0.936497         2.788468        -0.075309
 H         1.073127         0.131216         0.654783
 H        -2.375440        -0.266537         2.003123
 H        -1.055227         0.005116         3.221427
 H        -2.860319         1.850964         3.574572
 H        -0.698838         3.383490         3.552655
 H         0.919461         2.598522         1.533522
 H         0.949697         1.285181         2.714529
