19
Iteration:     8
 O        -2.766884         3.775656         1.448381
 C        -1.937900         2.680344         1.710321
 C        -1.432602         1.967982         0.488906
 C        -0.580185         0.930844         1.238374
 O         0.036360         0.004166         0.370137
 C        -1.536185         0.452404         2.272259
 C        -2.006854         1.873183         2.839467
 C        -0.749849         2.693945         2.738189
 C         0.367828         1.886717         2.167898
 H        -3.057771         4.088534         2.348492
 H        -2.167975         1.500665        -0.196936
 H        -0.795305         2.708342        -0.001233
 H         0.736107        -0.290395         0.952101
 H        -2.301673        -0.270118         1.822789
 H        -1.046395        -0.157832         3.037305
 H        -2.817646         1.986659         3.561939
 H        -0.755241         3.586376         3.393930
 H         1.118262         2.629563         1.737203
 H         0.954348         1.314170         2.878052
