19
Iteration:  4649charge 0 multiplicity 1
 O        -2.952561         3.731202         1.469428
 C        -1.944587         2.759342         1.688882
 C        -1.362327         1.905119         0.512781
 C        -0.542283         0.884616         1.348485
 O        -0.053458        -0.176851         0.455696
 C        -1.529805         0.483618         2.402504
 C        -1.889620         1.962109         2.914964
 C        -0.631150         2.833740         2.578401
 C         0.351851         1.931753         1.939062
 H        -2.825981         4.482305         2.087084
 H        -2.215370         1.344549         0.048571
 H        -0.886936         2.547273        -0.284698
 H         0.690257        -0.675795         0.732663
 H        -2.379212        -0.063959         1.913584
 H        -1.072922        -0.061978         3.260413
 H        -2.445216         2.138074         3.872779
 H        -0.492001         3.663524         3.284122
 H         0.893210         2.421275         1.091114
 H         1.067532         1.604188         2.673934
