19
Iteration:  3376
 O        -2.779420         3.883316         1.578902
 C        -1.843236         2.807905         1.630693
 C        -1.408852         1.951502         0.441481
 C        -0.519738         0.928174         1.326794
 O         0.133737        -0.130570         0.529975
 C        -1.625133         0.414612         2.322517
 C        -2.052992         1.798007         2.814135
 C        -0.849313         2.692238         2.752617
 C         0.356826         1.915299         2.050520
 H        -2.904366         4.039523         0.607830
 H        -2.345518         1.537570         0.002373
 H        -0.711341         2.394644        -0.174146
 H         0.745907         0.219193        -0.068492
 H        -2.504544         0.042633         1.717271
 H        -1.278875        -0.234120         3.135243
 H        -2.847239         1.900620         3.550051
 H        -0.799148         3.372266         3.616812
 H         0.819108         2.526532         1.289538
 H         1.140720         1.460936         2.638294
