19
Iteration:  4547charge 0 multiplicity 1
 O        -2.888264         3.723339         1.582521
 C        -1.860494         2.741250         1.669418
 C        -1.528392         1.891656         0.443283
 C        -0.585475         0.978487         1.229973
 O        -0.003560        -0.165370         0.555458
 C        -1.497390         0.477135         2.410393
 C        -1.888977         1.862962         2.894178
 C        -0.688319         2.894818         2.576511
 C         0.373370         1.912883         1.947087
 H        -2.431853         4.445097         1.147340
 H        -2.473166         1.456157         0.143158
 H        -1.078502         2.400211        -0.416891
 H         0.454039        -0.684316         1.311171
 H        -2.439744        -0.039286         2.038739
 H        -0.957996        -0.162815         3.117780
 H        -2.649512         2.178050         3.618646
 H        -0.414844         3.815992         3.074614
 H         0.978667         2.448079         1.185384
 H         1.055959         1.498056         2.633757
