19
Iteration:  2713charge 0 multiplicity 1
 O        -2.811647         3.871212         1.474686
 C        -1.788052         2.810032         1.621618
 C        -1.336519         1.909483         0.438646
 C        -0.568884         0.897271         1.270454
 O         0.095671        -0.005569         0.444428
 C        -1.664486         0.471362         2.369751
 C        -2.020043         1.858118         2.833951
 C        -0.731518         2.719464         2.744240
 C         0.250730         1.783206         2.150705
 H        -3.709625         3.511037         1.727581
 H        -2.179176         1.430045        -0.108487
 H        -0.692919         2.469108        -0.288942
 H         0.902569        -0.327106         0.941078
 H        -2.431687        -0.025022         1.750384
 H        -1.081034        -0.131524         3.024496
 H        -2.814978         2.267513         3.509130
 H        -0.315415         3.564269         3.334654
 H         0.920005         2.258597         1.515714
 H         0.835812         1.151484         2.841646
