19
Iteration:   428charge 0 multiplicity 1
 O        -2.744251         3.966449         1.534770
 C        -1.951171         2.830822         1.722375
 C        -1.235723         2.083583         0.460367
 C        -0.561797         0.902693         1.197798
 O         0.204253        -0.155587         0.432645
 C        -1.655907         0.391703         2.164779
 C        -2.100442         1.750888         2.817213
 C        -0.911797         2.617220         2.798238
 C         0.316886         1.838781         2.310141
 H        -3.168677         3.888342         0.677014
 H        -2.077400         1.873962        -0.154219
 H        -0.658245         2.806890        -0.010113
 H         1.121466         0.166663         0.182589
 H        -2.559764         0.050031         1.713024
 H        -1.235400        -0.348878         2.880914
 H        -2.966307         1.847643         3.511640
 H        -0.760533         3.478164         3.496942
 H         0.942424         2.421294         1.621781
 H         0.876509         1.250016         3.065890
