19
Iteration:  4229charge 0 multiplicity 1
 O        -2.865018         3.710487         1.411731
 C        -1.874335         2.826375         1.610863
 C        -1.446406         1.935385         0.472494
 C        -0.653385         0.925479         1.261823
 O        -0.039435        -0.169795         0.584902
 C        -1.454028         0.486009         2.500857
 C        -1.827078         1.885067         2.903050
 C        -0.714012         2.821284         2.625499
 C         0.373479         1.871945         1.989279
 H        -3.138183         4.137874         2.215484
 H        -2.334805         1.610700        -0.106277
 H        -0.848184         2.416045        -0.303631
 H         0.028685         0.105390        -0.404308
 H        -2.461446         0.010687         2.413255
 H        -0.931555        -0.070272         3.238186
 H        -2.577918         2.193941         3.676840
 H        -0.444091         3.686349         3.245913
 H         0.967072         2.350494         1.142807
 H         1.031703         1.279370         2.678978
