19
Iteration:   361charge 0 multiplicity 1
 O        -2.614169         4.059662         1.550500
 C        -1.937531         2.765450         1.666313
 C        -1.274811         2.040738         0.436501
 C        -0.490658         0.878793         1.167167
 O         0.255923        -0.089363         0.506522
 C        -1.675628         0.363720         2.193415
 C        -2.149160         1.728341         2.802675
 C        -0.949439         2.613527         2.814285
 C         0.218595         1.819240         2.215693
 H        -3.609286         3.925997         1.607565
 H        -2.027456         1.471902        -0.120135
 H        -0.672762         2.781371        -0.031172
 H         0.681819         0.205292        -0.325401
 H        -2.612574        -0.053896         1.757163
 H        -1.144747        -0.357520         2.843081
 H        -2.938077         1.888298         3.546986
 H        -0.818058         3.440786         3.520874
 H         0.924774         2.558203         1.706733
 H         0.736290         1.496173         3.141093
