19
Iteration:  4607charge 0 multiplicity 1
 O        -2.778412         3.821086         1.362195
 C        -1.874429         2.786588         1.671230
 C        -1.648342         1.759462         0.532990
 C        -0.687363         0.886940         1.257649
 O         0.064534         0.037989         0.419066
 C        -1.406348         0.458201         2.521160
 C        -1.875292         1.854844         2.914323
 C        -0.723898         2.807906         2.637805
 C         0.277630         1.863756         1.987832
 H        -2.474235         4.594862         1.826872
 H        -2.651587         1.282646         0.255798
 H        -1.041176         2.114193        -0.354299
 H         0.461507        -0.517501         1.069249
 H        -2.214183        -0.217126         2.322028
 H        -0.663467        -0.056941         3.191989
 H        -2.454054         2.252500         3.802353
 H        -0.450861         3.640917         3.298347
 H         0.909929         2.373532         1.241955
 H         0.922923         1.177839         2.665508
