19
Iteration:  4480charge 0 multiplicity 1
 O        -2.775887         3.806924         1.471678
 C        -1.948006         2.680619         1.699099
 C        -1.484937         1.843476         0.486003
 C        -0.552231         0.948073         1.248782
 O        -0.160052        -0.096549         0.446906
 C        -1.416938         0.512754         2.492726
 C        -1.940694         1.813240         2.904820
 C        -0.701500         2.804803         2.619814
 C         0.419405         2.008742         2.019275
 H        -2.538574         4.133660         0.551346
 H        -2.275688         1.192994         0.095086
 H        -1.143377         2.427656        -0.355602
 H         0.471473        -0.522554         0.998856
 H        -2.295518        -0.105415         2.153108
 H        -0.836739         0.015361         3.292911
 H        -2.679645         1.834074         3.765691
 H        -0.700128         3.668470         3.291883
 H         1.031544         2.557378         1.316653
 H         1.104904         1.491844         2.655340
