19
Iteration:   683charge 0 multiplicity 1
 O        -2.683390         3.939656         1.447364
 C        -1.917565         2.807250         1.652181
 C        -1.325922         2.092609         0.514356
 C        -0.504013         0.957152         1.345428
 O         0.117762         0.007783         0.493090
 C        -1.652191         0.304353         2.132253
 C        -2.127039         1.690255         2.651470
 C        -0.884918         2.571231         2.810057
 C         0.307265         1.807014         2.307935
 H        -2.464372         4.736755         1.896061
 H        -2.094796         1.569761        -0.025853
 H        -0.734988         2.594726        -0.194055
 H         0.864532         0.494452         0.128463
 H        -2.485653        -0.104738         1.494338
 H        -1.310600        -0.313571         2.963273
 H        -2.857139         1.711506         3.422804
 H        -0.798067         3.195347         3.706389
 H         0.954624         2.473481         1.721008
 H         0.900180         1.122780         2.982986
