19
Iteration:   222
 O        -2.570311         4.087752         1.585593
 C        -1.971165         2.685538         1.639646
 C        -1.438086         1.946760         0.440464
 C        -0.558103         0.918912         1.284708
 O         0.210799         0.085514         0.552167
 C        -1.613352         0.308469         2.161822
 C        -2.019582         1.678952         2.808216
 C        -0.894586         2.640780         2.709409
 C         0.259213         1.859436         2.117485
 H        -3.484826         4.279435         1.367035
 H        -2.161227         1.493919        -0.162967
 H        -0.760462         2.643758        -0.057361
 H         0.205608        -0.711672         1.035497
 H        -2.346153        -0.157088         1.561290
 H        -1.179625        -0.414299         2.885121
 H        -2.857172         1.828776         3.447263
 H        -0.869230         3.392804         3.465615
 H         0.857701         2.524135         1.581568
 H         0.861677         1.292299         2.842471
