19
Iteration:  1855charge 0 multiplicity 1
 O        -2.742482         3.893120         1.534646
 C        -1.943151         2.793619         1.646118
 C        -1.423451         2.016016         0.397956
 C        -0.538098         0.933299         1.222314
 O         0.178636        -0.205132         0.692982
 C        -1.586125         0.521660         2.225127
 C        -1.972033         1.758393         2.848612
 C        -0.796412         2.708560         2.663464
 C         0.325843         1.927108         2.116013
 H        -3.618003         3.764660         1.945024
 H        -2.237290         1.515544        -0.092322
 H        -0.999989         2.694254        -0.404000
 H        -0.291162        -0.424923        -0.226155
 H        -2.436046        -0.104993         1.683189
 H        -1.178769        -0.175752         2.966353
 H        -2.805034         2.014000         3.469739
 H        -0.530349         3.464250         3.346486
 H         1.044657         2.491784         1.492039
 H         0.960293         1.250529         2.860883
