19
Iteration:  2920
 O        -2.620608         3.988603         1.438736
 C        -1.907676         2.809724         1.606674
 C        -1.497498         1.786110         0.489645
 C        -0.506625         0.895105         1.418935
 O         0.138698         0.054785         0.318780
 C        -1.636422         0.431149         2.364972
 C        -2.107835         1.778355         2.864148
 C        -0.802666         2.662202         2.800050
 C         0.333049         1.933697         2.170522
 H        -3.347649         3.560142         0.992187
 H        -2.296063         1.171460         0.109829
 H        -0.728430         2.272363        -0.241749
 H         0.770758        -0.739384         0.533659
 H        -2.432937         0.062649         1.698114
 H        -1.361618        -0.348066         3.021821
 H        -2.911332         1.853478         3.571512
 H        -0.601580         3.512083         3.483623
 H         0.784945         2.504509         1.414960
 H         1.022429         1.316087         2.825393
