19
Iteration:  2951
 O        -2.618592         3.882782         1.436706
 C        -1.879742         2.769994         1.658365
 C        -1.407394         2.036290         0.458786
 C        -0.605186         0.982873         1.286517
 O         0.043795        -0.003187         0.456728
 C        -1.558674         0.407763         2.379773
 C        -2.084743         1.705521         2.826623
 C        -0.800784         2.694629         2.673946
 C         0.296054         1.874573         2.176535
 H        -3.527251         3.539101         1.225753
 H        -2.085842         1.698764        -0.270947
 H        -0.774141         2.646142        -0.192418
 H         0.577882        -0.642950         0.868620
 H        -2.321409        -0.289192         1.940826
 H        -0.888067        -0.187083         3.131058
 H        -2.830110         1.722031         3.607330
 H        -0.801385         3.536554         3.361540
 H         1.166399         2.377159         1.615095
 H         0.841575         1.275831         2.996474
