19
Iteration:   809
 O        -2.702899         4.054913         1.536863
 C        -1.939926         2.811775         1.675264
 C        -1.360840         2.026594         0.506600
 C        -0.577632         1.001113         1.215381
 O         0.157034        -0.048248         0.546791
 C        -1.613716         0.337598         2.196586
 C        -2.159920         1.658899         2.710428
 C        -0.870460         2.615667         2.766260
 C         0.350294         1.755898         2.260228
 H        -2.850268         4.169324         0.573221
 H        -2.067887         1.414809        -0.116426
 H        -0.623906         2.587064        -0.166264
 H         0.998553         0.400419         0.141892
 H        -2.369317        -0.230575         1.614747
 H        -1.172163        -0.281443         3.040840
 H        -2.893602         1.766196         3.504148
 H        -0.728275         3.375192         3.521567
 H         1.167489         2.440843         1.765741
 H         1.007490         1.164543         2.931118
