19
Iteration:  2283
 O        -2.860903         3.854686         1.526867
 C        -1.912160         2.838973         1.628154
 C        -1.399065         2.030844         0.430104
 C        -0.582156         0.922069         1.310526
 O         0.154658        -0.099769         0.514374
 C        -1.535304         0.417828         2.396406
 C        -1.955863         1.838944         2.772887
 C        -0.751856         2.794848         2.577304
 C         0.359822         1.832947         2.139451
 H        -3.738102         3.517568         1.575606
 H        -2.322508         1.465463         0.014858
 H        -0.734804         2.522442        -0.251139
 H        -0.491301        -0.796821         0.492919
 H        -2.376963        -0.254630         2.111945
 H        -1.004375        -0.177788         3.096443
 H        -2.489177         1.895838         3.758319
 H        -0.579759         3.411462         3.444288
 H         0.955019         2.347402         1.399416
 H         1.081621         1.283966         2.745797
