19
Iteration:  4016charge 0 multiplicity 1
 O        -2.762390         3.947381         1.429149
 C        -1.871235         2.800666         1.680931
 C        -1.520692         1.889000         0.484307
 C        -0.652921         0.894653         1.326084
 O         0.117277        -0.020003         0.435819
 C        -1.518976         0.338723         2.422793
 C        -1.966924         1.837319         2.939764
 C        -0.781995         2.772819         2.679249
 C         0.371545         1.906348         2.018233
 H        -3.116037         3.787303         0.555561
 H        -2.271180         1.284663        -0.007441
 H        -0.957066         2.342906        -0.368826
 H         0.472601        -0.818130         0.990558
 H        -2.412636        -0.249925         2.184732
 H        -0.805775        -0.135816         3.088928
 H        -2.725525         1.826681         3.767929
 H        -0.728633         3.542884         3.448994
 H         0.904275         2.462857         1.233851
 H         0.930847         1.257158         2.758727
