19
Iteration:  4322charge 0 multiplicity 1
 O        -2.788793         3.964779         1.633406
 C        -1.943774         2.823288         1.642068
 C        -1.675800         1.695757         0.468000
 C        -0.620181         0.911416         1.217039
 O         0.135429        -0.085227         0.556572
 C        -1.497044         0.453426         2.448684
 C        -1.917502         1.958041         2.900927
 C        -0.642565         2.777947         2.558041
 C         0.350441         1.867394         1.873648
 H        -3.201089         3.906779         0.728500
 H        -2.537940         1.050488         0.266682
 H        -1.264295         1.917613        -0.559843
 H         0.652898        -0.629183         1.089790
 H        -2.398849        -0.114194         2.233569
 H        -0.916540        -0.216968         3.174126
 H        -2.496879         2.155806         3.866748
 H        -0.279135         3.568768         3.222073
 H         0.899621         2.480807         1.175387
 H         1.026348         1.370945         2.575271
