19
Iteration:  4113charge 0 multiplicity 1
 O        -2.784987         3.738627         1.406218
 C        -1.883870         2.754822         1.661629
 C        -1.474222         1.886832         0.463713
 C        -0.558419         0.941114         1.289149
 O        -0.062383        -0.062098         0.483627
 C        -1.616612         0.531741         2.381228
 C        -1.797990         1.906545         2.916121
 C        -0.705188         2.820707         2.700752
 C         0.358370         1.872393         2.048300
 H        -3.580207         3.509556         1.897981
 H        -2.352340         1.300589         0.113262
 H        -1.004062         2.315352        -0.488343
 H         0.812898        -0.487289         0.848614
 H        -2.527294         0.151564         1.798125
 H        -1.093170        -0.277317         3.051885
 H        -2.539984         2.111025         3.673835
 H        -0.229590         3.600709         3.283684
 H         0.976153         2.366757         1.278476
 H         0.901867         1.418994         2.878658
