19
Iteration:  2983
 O        -2.799630         3.904353         1.630054
 C        -1.871042         2.795417         1.650741
 C        -1.324814         2.014513         0.406758
 C        -0.516062         0.900252         1.261194
 O         0.138261        -0.173335         0.508148
 C        -1.699214         0.510333         2.243598
 C        -2.032559         1.822456         2.778348
 C        -0.777898         2.706791         2.657080
 C         0.351092         1.898958         2.141952
 H        -3.681499         3.681037         1.356105
 H        -2.025418         1.375021        -0.173796
 H        -0.695168         2.610634        -0.252692
 H         0.561635        -0.796709         1.167337
 H        -2.536732         0.008298         1.686297
 H        -1.262862        -0.283571         3.019972
 H        -2.773270         1.779197         3.556656
 H        -0.815653         3.557241         3.330954
 H         1.062603         2.567071         1.490812
 H         0.872821         1.426523         3.039954
