19
Iteration:  3199
 O        -2.675194         3.906201         1.492032
 C        -1.968375         2.737856         1.689640
 C        -1.498393         1.978845         0.452992
 C        -0.581927         0.936537         1.232590
 O         0.198965        -0.039041         0.588800
 C        -1.580887         0.448751         2.283756
 C        -2.022647         1.730302         2.886003
 C        -0.797919         2.769744         2.595673
 C         0.385438         1.836596         2.209106
 H        -3.521163         3.923598         0.977030
 H        -2.349424         1.551760        -0.130384
 H        -0.891992         2.509972        -0.211848
 H         0.120522        -0.110433        -0.324607
 H        -2.481180        -0.061995         1.822006
 H        -1.083642        -0.262357         2.998561
 H        -2.753810         1.841192         3.662083
 H        -0.800655         3.640841         3.237665
 H         1.238546         2.147331         1.535669
 H         0.604699         1.087233         3.062641
