19
Iteration:  3510
 O        -2.815400         3.903826         1.516578
 C        -1.877386         2.799064         1.666052
 C        -1.485468         1.880461         0.482779
 C        -0.575121         0.906323         1.241421
 O         0.111371        -0.013428         0.390500
 C        -1.538001         0.362132         2.314972
 C        -1.924513         1.832680         2.791490
 C        -0.774159         2.827112         2.710156
 C         0.364068         1.882187         2.227857
 H        -3.015960         3.915278         0.537697
 H        -2.348099         1.186609         0.304198
 H        -1.056002         2.326892        -0.424273
 H         0.147576        -0.877583         0.857473
 H        -2.423692        -0.331693         2.005592
 H        -0.959131        -0.166083         3.121089
 H        -2.759767         2.008585         3.534483
 H        -0.892683         3.520936         3.578813
 H         1.275138         2.314160         1.764116
 H         0.702240         1.389535         3.095205
