19
Iteration:  2631charge 0 multiplicity 1
 O        -2.582505         3.925302         1.653192
 C        -1.956250         2.716149         1.584346
 C        -1.463904         1.931475         0.409908
 C        -0.542683         0.915005         1.273717
 O         0.152479        -0.037052         0.549453
 C        -1.578043         0.456861         2.379316
 C        -2.072533         1.757784         2.788043
 C        -0.838863         2.718700         2.657679
 C         0.286759         1.923478         2.048221
 H        -3.305121         3.960450         0.978464
 H        -2.267627         1.399460        -0.169550
 H        -0.737119         2.548879        -0.358365
 H         0.045529        -0.877709         0.910273
 H        -2.292476        -0.202990         1.856639
 H        -1.173834        -0.200371         3.178865
 H        -2.905126         1.983086         3.477145
 H        -0.687705         3.636380         3.199131
 H         0.965585         2.577009         1.415699
 H         0.907656         1.336721         2.691785
