19
Iteration:  1033charge 0 multiplicity 1
 O        -2.616094         3.909239         1.356734
 C        -1.850990         2.765410         1.653765
 C        -1.400460         1.981854         0.491913
 C        -0.592336         0.996782         1.301576
 O        -0.009240         0.064075         0.527040
 C        -1.514572         0.434882         2.280505
 C        -2.068623         1.750585         2.778681
 C        -0.819557         2.531979         2.820113
 C         0.324337         1.809776         2.242432
 H        -3.437540         3.483510         0.982988
 H        -2.113517         1.320154        -0.061417
 H        -0.769041         2.623461        -0.261930
 H         0.166113         0.475843        -0.307310
 H        -2.360606        -0.190723         1.927733
 H        -1.043357        -0.141026         3.068315
 H        -2.803061         1.836963         3.522664
 H        -0.665749         3.327968         3.541140
 H         0.868843         2.576043         1.669046
 H         0.908479         1.264243         3.063238
