19
Iteration:  2711
 O        -2.790339         3.847902         1.473890
 C        -1.788945         2.795880         1.616921
 C        -1.352015         1.898502         0.449323
 C        -0.549197         0.905593         1.264337
 O         0.091886        -0.005953         0.431246
 C        -1.686751         0.487157         2.381206
 C        -2.012417         1.861799         2.830944
 C        -0.724338         2.724224         2.743126
 C         0.245762         1.802965         2.154871
 H        -3.662418         3.441316         1.743782
 H        -2.215091         1.442897        -0.109764
 H        -0.635939         2.557338        -0.302143
 H         0.841607        -0.295025         0.882840
 H        -2.474665        -0.003073         1.757607
 H        -1.188122        -0.198850         3.054910
 H        -2.821546         2.200244         3.497186
 H        -0.364991         3.601962         3.354565
 H         0.996243         2.251702         1.570263
 H         0.789086         1.222085         2.884484
