19
Iteration:  1323charge 0 multiplicity 1
 O        -2.696783         4.019200         1.465443
 C        -1.900960         2.816444         1.635712
 C        -1.486098         2.007614         0.425817
 C        -0.618850         0.941616         1.252338
 O         0.111354        -0.063684         0.612084
 C        -1.544540         0.287251         2.267289
 C        -2.025798         1.719980         2.825798
 C        -0.849821         2.651182         2.748619
 C         0.286826         1.828665         2.059230
 H        -2.655233         4.718289         2.178177
 H        -2.357385         1.411751        -0.087342
 H        -0.896265         2.242651        -0.442650
 H         1.094107         0.225142         0.646505
 H        -2.228650        -0.323075         1.724276
 H        -0.922293        -0.262610         3.020840
 H        -2.648377         1.788627         3.760599
 H        -0.583938         3.509020         3.376451
 H         0.956566         2.427310         1.320382
 H         0.944882         1.342477         2.792203
