19
Iteration:  1691charge 0 multiplicity 1
 O        -2.756942         3.794579         1.372173
 C        -1.874177         2.801457         1.730416
 C        -1.352700         2.051521         0.524096
 C        -0.598431         0.911029         1.247343
 O         0.092084        -0.060443         0.451692
 C        -1.581322         0.515876         2.332851
 C        -2.062366         1.806912         2.942994
 C        -0.847393         2.656284         2.737288
 C         0.368816         1.793030         2.180644
 H        -2.739092         4.018249         0.440800
 H        -2.030587         1.721833        -0.260134
 H        -0.505268         2.701287         0.044062
 H        -0.317298         0.012856        -0.378741
 H        -2.341671        -0.055758         1.736523
 H        -1.251933        -0.181842         3.022709
 H        -2.689147         1.890200         3.845469
 H        -0.498789         3.463863         3.452713
 H         1.071601         2.490522         1.787921
 H         0.982440         1.155911         2.894985
