19
Iteration:    49
 O        -2.865588         3.826875         1.440020
 C        -1.860316         2.883205         1.661580
 C        -1.339389         2.000035         0.578813
 C        -0.603267         0.931696         1.315159
 O         0.039028        -0.034762         0.497015
 C        -1.547782         0.357972         2.239736
 C        -1.950242         1.753736         2.797750
 C        -0.748956         2.738220         2.713795
 C         0.370053         1.906798         2.165940
 H        -3.648208         3.257467         1.660460
 H        -2.166478         1.752826        -0.127630
 H        -0.444449         2.463664         0.049042
 H        -0.414593        -0.015983        -0.420638
 H        -2.240556        -0.341607         1.753836
 H        -1.006593        -0.365364         2.915440
 H        -2.676152         2.036611         3.585295
 H        -0.485213         3.421996         3.559191
 H         1.159011         2.314575         1.496275
 H         0.980622         1.348982         2.974257
