19
Iteration:  4090
 O        -2.904845         3.763608         1.430235
 C        -1.883089         2.803317         1.714597
 C        -1.482193         1.938800         0.474029
 C        -0.663859         0.896463         1.224319
 O         0.106313        -0.098174         0.500860
 C        -1.611038         0.497827         2.429431
 C        -1.973151         1.926917         2.859280
 C        -0.668611         2.796750         2.571553
 C         0.485878         1.770738         2.042913
 H        -3.047053         4.258230         2.273766
 H        -2.480794         1.666246         0.045369
 H        -0.852468         2.405915        -0.358492
 H         0.903541        -0.063384         0.932798
 H        -2.514347        -0.155143         2.101263
 H        -1.016598         0.041616         3.341582
 H        -2.594112         2.315869         3.732040
 H        -0.437424         3.525832         3.354877
 H         1.125093         2.078817         1.201911
 H         0.910905         1.105163         2.781367
