19
Iteration:  3175
 O        -2.684962         3.938095         1.333225
 C        -1.911662         2.766659         1.709358
 C        -1.409571         1.966725         0.482821
 C        -0.554172         0.897532         1.314381
 O         0.169972         0.022006         0.497547
 C        -1.587015         0.366971         2.315867
 C        -2.038227         1.753425         2.872030
 C        -0.805375         2.661140         2.788893
 C         0.291823         1.891287         2.152906
 H        -3.658357         3.888651         1.333009
 H        -2.157351         1.552704        -0.169195
 H        -0.713849         2.528715        -0.134462
 H        -0.514838        -0.379843        -0.151091
 H        -2.413593        -0.195779         1.756768
 H        -1.009694        -0.355711         3.030467
 H        -2.535015         2.050077         3.785251
 H        -0.633314         3.538548         3.428210
 H         0.817401         2.472490         1.389858
 H         0.913912         1.299369         2.915380
