19
Iteration:  1361
 O        -2.750172         3.797701         1.675973
 C        -1.883845         2.749646         1.615859
 C        -1.355477         1.956212         0.381673
 C        -0.560236         0.968467         1.276567
 O         0.127852        -0.127718         0.632700
 C        -1.696849         0.454155         2.218025
 C        -2.075544         1.824805         2.783230
 C        -0.789929         2.722108         2.709783
 C         0.341035         1.897529         2.103105
 H        -2.295452         4.451870         1.110808
 H        -2.173061         1.495738        -0.156962
 H        -0.692526         2.612155        -0.280563
 H         0.320124         0.096294        -0.245594
 H        -2.418426        -0.149596         1.597847
 H        -1.310476        -0.216735         2.970718
 H        -2.763083         2.081069         3.562512
 H        -0.722093         3.683407         3.238727
 H         1.015395         2.511795         1.564436
 H         0.917774         1.230793         2.766569
