19
Iteration:   691
 O        -2.707006         3.959303         1.516320
 C        -1.908375         2.833100         1.656493
 C        -1.336552         2.057256         0.484125
 C        -0.547697         0.921280         1.337674
 O         0.170800        -0.047639         0.560040
 C        -1.716024         0.330533         2.048991
 C        -2.224765         1.692236         2.661485
 C        -0.788971         2.575114         2.803919
 C         0.349125         1.870508         2.251522
 H        -2.628195         4.634234         2.183851
 H        -1.954378         1.527439        -0.212281
 H        -0.549978         2.575215        -0.134627
 H         0.749340         0.511881         0.101179
 H        -2.246482        -0.267606         1.335314
 H        -1.307359        -0.313254         2.877475
 H        -2.898964         1.674918         3.549493
 H        -0.848169         3.394086         3.518761
 H         1.129668         2.349737         1.700781
 H         0.881931         1.363962         3.037597
