19
Iteration:   117charge 0 multiplicity 1
 O        -2.594695         4.050891         1.594034
 C        -1.913801         2.829112         1.620747
 C        -1.506215         1.920738         0.482048
 C        -0.557551         0.930535         1.314020
 O         0.167236        -0.007046         0.455972
 C        -1.521982         0.331278         2.317736
 C        -2.146480         1.694005         2.747122
 C        -0.857061         2.585535         2.694871
 C         0.288012         1.908171         2.079563
 H        -3.513358         3.901452         1.415698
 H        -2.379692         1.326734         0.081943
 H        -0.912204         2.300003        -0.380354
 H         1.071719         0.026645         0.709960
 H        -2.289614        -0.346438         1.816937
 H        -1.040660        -0.352635         3.047132
 H        -2.858342         1.981732         3.501565
 H        -0.814512         3.254646         3.524539
 H         0.960463         2.691509         1.577801
 H         0.875755         1.529901         2.938883
