19
Iteration:  3372charge 0 multiplicity 1
 O        -2.781377         3.912280         1.570572
 C        -1.879909         2.810687         1.645469
 C        -1.419982         1.980533         0.474914
 C        -0.513828         0.967050         1.283637
 O         0.119405        -0.146487         0.589040
 C        -1.613603         0.413114         2.299343
 C        -2.021184         1.764388         2.813313
 C        -0.859355         2.668680         2.735394
 C         0.370762         1.895504         2.032060
 H        -2.944726         4.026773         0.635558
 H        -2.240832         1.375816         0.035028
 H        -0.734001         2.474232        -0.349187
 H         0.728695         0.165697        -0.175608
 H        -2.470784        -0.026032         1.725829
 H        -1.241372        -0.332171         3.103007
 H        -2.901581         1.998681         3.456148
 H        -0.787630         3.335459         3.606925
 H         0.920328         2.622203         1.430463
 H         1.181550         1.504742         2.692199
