19
Iteration:   515charge 0 multiplicity 1
 O        -2.605577         3.986391         1.266176
 C        -1.896412         2.746934         1.724376
 C        -1.362376         2.061262         0.474612
 C        -0.525543         1.019620         1.264927
 O         0.100164         0.113301         0.485990
 C        -1.596671         0.262769         2.186768
 C        -2.116891         1.645344         2.822736
 C        -0.905578         2.538368         2.844845
 C         0.288378         1.779199         2.340529
 H        -3.142312         4.486423         1.864549
 H        -2.090785         1.700466        -0.210689
 H        -0.787665         2.759833        -0.055688
 H         0.705865         0.618187        -0.043013
 H        -2.417919        -0.111780         1.614528
 H        -1.329910        -0.471288         2.957951
 H        -2.736675         1.749555         3.703989
 H        -0.832389         3.288570         3.638327
 H         1.117368         2.190847         1.748152
 H         0.659963         0.954563         2.945285
