19
Iteration:  1160
 O        -2.647718         3.866832         1.350811
 C        -1.831008         2.730855         1.662271
 C        -1.423130         1.952293         0.536482
 C        -0.614500         0.903736         1.324431
 O         0.041001         0.032042         0.384932
 C        -1.592829         0.403824         2.411094
 C        -2.043808         1.753367         2.837186
 C        -0.786036         2.756452         2.775692
 C         0.318326         1.836068         2.183875
 H        -3.586085         3.827637         1.449254
 H        -2.227938         1.478293        -0.093736
 H        -0.828470         2.550529        -0.152537
 H         0.717985         0.613418        -0.029346
 H        -2.433899        -0.091926         1.953769
 H        -1.028318        -0.306296         3.070497
 H        -2.860216         1.861946         3.522669
 H        -0.624656         3.587991         3.475931
 H         1.103316         2.233543         1.491783
 H         0.828451         1.224459         2.874992
