19
Iteration:  4463charge 0 multiplicity 1
 O        -2.824197         3.908855         1.459466
 C        -1.909419         2.763723         1.644000
 C        -1.622896         1.862283         0.525521
 C        -0.512581         0.963497         1.299269
 O        -0.036216        -0.193410         0.506027
 C        -1.371762         0.404382         2.442107
 C        -1.966419         1.889036         2.904262
 C        -0.812086         2.709781         2.717269
 C         0.363842         1.975858         1.889536
 H        -2.160022         4.584886         1.105857
 H        -2.513215         1.428822         0.022018
 H        -0.912339         2.215077        -0.304800
 H         0.583096        -0.709090         0.931171
 H        -1.920845        -0.463004         2.078512
 H        -0.626750         0.069045         3.170995
 H        -2.603225         2.116649         3.730920
 H        -0.470172         3.597931         3.204003
 H         0.826139         2.692984         1.100172
 H         1.196454         1.593819         2.560401
