19
Iteration:  1379
 O        -2.842818         3.832253         1.556101
 C        -1.836632         2.841416         1.597621
 C        -1.273634         2.031329         0.441072
 C        -0.621512         0.928430         1.304453
 O         0.050951        -0.057834         0.528879
 C        -1.591338         0.425781         2.346866
 C        -1.970035         1.795227         2.769505
 C        -0.792248         2.682700         2.743196
 C         0.332935         1.784728         2.169399
 H        -2.855337         4.297783         0.704835
 H        -2.106583         1.465677        -0.153600
 H        -0.396926         2.415151        -0.060308
 H        -0.144450         0.123290        -0.343247
 H        -2.470866        -0.026308         1.931204
 H        -1.131727        -0.333105         3.025888
 H        -2.938224         1.928055         3.241875
 H        -0.526180         3.369180         3.504506
 H         0.997326         2.383707         1.413827
 H         0.944370         1.508321         3.031653
