19
Iteration:  2740
 O        -2.703695         3.970977         1.509095
 C        -1.921197         2.767989         1.663316
 C        -1.463341         2.034466         0.456975
 C        -0.536167         0.911162         1.237280
 O         0.108788        -0.135026         0.550449
 C        -1.610776         0.415432         2.369457
 C        -2.038199         1.709655         2.739909
 C        -0.797024         2.708117         2.648463
 C         0.346258         1.911216         2.090304
 H        -3.680218         3.829829         1.446388
 H        -2.169256         1.668314        -0.261212
 H        -0.898899         2.782508        -0.081508
 H         0.700323        -0.580227         1.240418
 H        -2.315476        -0.169109         1.811086
 H        -0.971712        -0.056100         3.167673
 H        -2.593210         1.952444         3.617494
 H        -0.621765         3.435181         3.437167
 H         1.186275         2.389699         1.412974
 H         0.802180         1.278739         2.892836
