19
Iteration:  2556charge 0 multiplicity 1
 O        -2.782782         3.848670         1.402814
 C        -1.898015         2.785534         1.604534
 C        -1.335413         2.034797         0.460658
 C        -0.553114         0.925832         1.331522
 O         0.057609        -0.058439         0.521440
 C        -1.549623         0.372925         2.412512
 C        -1.971988         1.804391         2.816901
 C        -0.790404         2.716872         2.718429
 C         0.392671         1.872681         2.130617
 H        -3.587703         3.603769         1.867770
 H        -2.032025         1.721639        -0.290662
 H        -0.607204         2.541545        -0.288749
 H        -0.747713        -0.390291        -0.043445
 H        -2.506242         0.074660         1.908627
 H        -1.152555        -0.288134         3.190503
 H        -2.812076         2.115135         3.496694
 H        -0.720669         3.536691         3.430426
 H         1.062838         2.350296         1.428342
 H         0.861073         1.336380         2.920296
