19
Iteration:  4854charge 0 multiplicity 1
 O        -2.760276         3.876759         1.420967
 C        -1.930936         2.707032         1.613951
 C        -1.573846         1.696426         0.517143
 C        -0.543999         0.942573         1.320946
 O         0.015637         0.045491         0.372047
 C        -1.469059         0.427957         2.573291
 C        -1.968238         1.891312         2.904141
 C        -0.797903         2.754460         2.588021
 C         0.363019         1.938543         2.034230
 H        -2.314794         4.639927         1.770791
 H        -2.334504         1.030401         0.167027
 H        -1.104976         2.207533        -0.310208
 H         0.600000        -0.567240         0.716132
 H        -2.169950        -0.269855         1.997306
 H        -1.014776        -0.096917         3.366379
 H        -2.493255         2.026287         3.850849
 H        -0.592538         3.620886         3.152051
 H         1.148701         2.460577         1.325023
 H         0.905658         1.298270         2.755509
