19
Iteration:  3784
 O        -2.809522         3.837717         1.470610
 C        -1.898092         2.703284         1.593897
 C        -1.446417         1.896457         0.485275
 C        -0.614831         0.869874         1.235935
 O         0.075508        -0.001273         0.465640
 C        -1.578769         0.379267         2.444881
 C        -1.942905         1.833627         2.879821
 C        -0.748728         2.822213         2.604895
 C         0.249896         1.849428         2.135432
 H        -2.273465         4.682508         1.466773
 H        -2.212049         1.558330        -0.249699
 H        -0.695393         2.394708        -0.138778
 H         1.070608         0.091848         0.544687
 H        -2.402590        -0.290622         2.145941
 H        -0.847250        -0.145149         3.073109
 H        -2.622710         2.165653         3.727085
 H        -0.543088         3.709062         3.254609
 H         1.062437         2.321204         1.594195
 H         0.626089         1.273832         3.143919
