19
Iteration:  3697
 O        -2.872591         3.820049         1.534507
 C        -2.048897         2.728710         1.675550
 C        -1.354029         1.962396         0.478136
 C        -0.554406         0.874307         1.328379
 O         0.105514        -0.129028         0.542265
 C        -1.635189         0.500387         2.408529
 C        -2.000301         1.859494         2.768420
 C        -0.722855         2.813939         2.540785
 C         0.399811         1.773583         2.023210
 H        -2.309260         4.525858         1.936024
 H        -2.094008         1.613927        -0.198457
 H        -0.573557         2.587474         0.127031
 H         0.824279         0.384249        -0.014753
 H        -2.499074        -0.032442         1.899447
 H        -1.163314        -0.087568         3.250469
 H        -2.559416         1.861513         3.719627
 H        -0.731353         3.680501         3.186698
 H         1.148319         2.134571         1.382767
 H         0.882376         1.510953         2.914783
