19
Iteration:   901
 O        -2.698585         3.803387         1.324978
 C        -1.829509         2.806260         1.712144
 C        -1.331189         2.010656         0.482129
 C        -0.522721         1.025467         1.300046
 O         0.048896        -0.018317         0.396146
 C        -1.606629         0.339810         2.317012
 C        -2.158008         1.750793         2.748272
 C        -0.834124         2.705127         2.844901
 C         0.293035         1.784390         2.293742
 H        -2.561764         4.664855         1.772463
 H        -2.197045         1.543108        -0.075781
 H        -0.770074         2.685364        -0.293256
 H         0.652066         0.467685        -0.186638
 H        -2.321242        -0.096440         1.638120
 H        -1.178727        -0.248757         3.142302
 H        -3.014310         1.897171         3.485067
 H        -0.543214         3.266996         3.749302
 H         1.087526         2.403064         1.871759
 H         0.781663         1.179323         3.082665
