19
Iteration:  3916
 O        -2.738204         3.837978         1.399941
 C        -1.937304         2.658162         1.644050
 C        -1.485870         1.861144         0.461717
 C        -0.561913         0.959131         1.260127
 O         0.113783         0.039365         0.476731
 C        -1.593764         0.467046         2.403155
 C        -1.955182         1.825381         2.947589
 C        -0.787142         2.721132         2.670886
 C         0.316249         1.885260         2.028775
 H        -2.453681         4.484665         2.101877
 H        -2.255804         1.452385        -0.207110
 H        -0.853951         2.568207        -0.107558
 H         0.102912        -0.776718         1.012601
 H        -2.395427        -0.103255         1.957397
 H        -1.053360        -0.235418         2.926698
 H        -2.604935         2.042715         3.758560
 H        -0.766443         3.586514         3.322963
 H         1.074552         2.328516         1.459031
 H         0.927945         1.489226         2.852193
