19
Iteration:  4661charge 0 multiplicity 1
 O        -2.965253         3.750616         1.483586
 C        -1.855770         2.849280         1.603883
 C        -1.449839         1.973839         0.413684
 C        -0.549009         0.883437         1.267925
 O        -0.103512        -0.198311         0.516970
 C        -1.482356         0.467768         2.503523
 C        -1.836010         1.821051         2.865322
 C        -0.757181         2.830162         2.652960
 C         0.421463         1.954878         1.950402
 H        -2.841888         4.412304         2.157762
 H        -2.237812         1.456182        -0.234795
 H        -0.702889         2.499000        -0.267228
 H         0.614114        -0.532089         1.078737
 H        -2.349849        -0.171713         2.335103
 H        -0.842825        -0.129402         3.223733
 H        -2.671969         2.015152         3.599047
 H        -0.250452         3.548922         3.279436
 H         0.948249         2.534522         1.178399
 H         1.197322         1.559326         2.649882
