19
Iteration:   965charge 0 multiplicity 1
 O        -2.715462         3.998568         1.600631
 C        -1.873181         2.838587         1.648523
 C        -1.418080         1.937466         0.336881
 C        -0.598098         0.966315         1.187936
 O         0.204012        -0.079570         0.711436
 C        -1.677317         0.431305         2.161256
 C        -2.118955         1.766962         2.680620
 C        -0.731861         2.633750         2.825452
 C         0.346911         1.847100         2.201114
 H        -3.599068         3.733692         1.797646
 H        -2.155930         1.382292        -0.290804
 H        -0.729208         2.484015        -0.371187
 H         0.310051        -0.131858        -0.200611
 H        -2.374572        -0.206992         1.604524
 H        -1.103481        -0.269887         2.847067
 H        -3.015267         1.778134         3.372898
 H        -0.546160         3.333661         3.648287
 H         1.000829         2.525246         1.539354
 H         0.923745         1.020281         2.681076
