19
Iteration:  1161
 O        -2.644096         3.871061         1.349898
 C        -1.825001         2.726460         1.663053
 C        -1.425713         1.949019         0.525117
 C        -0.618091         0.906762         1.319871
 O         0.045713         0.029743         0.386502
 C        -1.596111         0.404069         2.410953
 C        -2.043402         1.754155         2.848569
 C        -0.786687         2.749427         2.778234
 C         0.312672         1.844488         2.178421
 H        -3.590933         3.820717         1.462967
 H        -2.216557         1.482264        -0.050484
 H        -0.827258         2.525765        -0.171141
 H         0.725205         0.645050        -0.052362
 H        -2.455427        -0.114647         1.980443
 H        -1.014734        -0.292111         3.062336
 H        -2.896412         1.854177         3.519897
 H        -0.615109         3.585971         3.482341
 H         1.124413         2.246136         1.525866
 H         0.806094         1.222053         2.874166
