19
Iteration:  3296charge 0 multiplicity 1
 O        -2.735461         3.844628         1.416077
 C        -1.850561         2.767464         1.649165
 C        -1.402577         1.950678         0.574730
 C        -0.544322         0.924950         1.335377
 O         0.091426         0.011863         0.432166
 C        -1.662040         0.428027         2.363591
 C        -2.016123         1.831516         2.756277
 C        -0.770166         2.709335         2.689648
 C         0.358809         1.832614         2.112270
 H        -3.562969         3.590410         1.896513
 H        -2.328410         1.535600         0.194426
 H        -0.986504         2.422091        -0.324797
 H         0.941506         0.331215         0.295546
 H        -2.531296        -0.208879         1.954105
 H        -1.373348        -0.379380         3.156685
 H        -2.817875         2.095411         3.444196
 H        -0.614749         3.313330         3.590106
 H         1.078474         2.327264         1.552912
 H         0.822861         1.338490         2.996519
