19
Iteration:   832
 O        -2.730989         3.953663         1.705874
 C        -1.847435         2.818037         1.640274
 C        -1.388784         2.091863         0.351085
 C        -0.493243         0.853509         1.244722
 O         0.228999        -0.176507         0.630799
 C        -1.657952         0.426288         2.108914
 C        -2.118756         1.767689         2.687575
 C        -0.872532         2.650455         2.771010
 C         0.210959         1.857013         2.217430
 H        -2.841635         4.218062         0.802177
 H        -2.276576         1.650750        -0.176108
 H        -0.672696         2.652407        -0.367955
 H         1.047382         0.011042         0.249652
 H        -2.372208         0.031037         1.405965
 H        -1.440027        -0.341429         2.933296
 H        -2.832885         1.830857         3.466761
 H        -0.769947         3.289533         3.632031
 H         0.892003         2.600900         1.645662
 H         0.985164         1.440158         2.893706
