19
Iteration:  3845
 O        -2.756208         3.790929         1.554953
 C        -1.923075         2.748184         1.679112
 C        -1.405810         2.092543         0.490762
 C        -0.589267         0.871365         1.243245
 O         0.020248        -0.160056         0.596649
 C        -1.560426         0.432113         2.299832
 C        -1.953881         1.774528         2.915868
 C        -0.832517         2.792075         2.599393
 C         0.343568         1.952520         2.011166
 H        -2.747587         4.084318         0.598759
 H        -2.061546         1.832372        -0.416397
 H        -0.589102         2.719142         0.019190
 H         0.927556        -0.299940         0.928337
 H        -2.478924        -0.076946         1.907381
 H        -1.109164        -0.441451         2.965950
 H        -2.801989         2.074618         3.597750
 H        -0.777215         3.574955         3.347984
 H         1.084018         2.355178         1.248125
 H         1.051059         1.518031         2.623694
