19
Iteration:  3013charge 0 multiplicity 1
 O        -2.684842         3.895406         1.517709
 C        -1.811621         2.789466         1.650042
 C        -1.365829         1.929508         0.459118
 C        -0.619888         0.913128         1.313211
 O         0.141468         0.049138         0.525802
 C        -1.713425         0.408054         2.246488
 C        -2.025223         1.781631         2.754897
 C        -0.760921         2.687899         2.731976
 C         0.308880         1.875553         2.099230
 H        -3.639857         3.625733         1.628486
 H        -2.232197         1.217580         0.136061
 H        -0.735885         2.388508        -0.281525
 H         0.414043        -0.625144         1.103880
 H        -2.514414        -0.061816         1.706009
 H        -1.269646        -0.231846         3.003457
 H        -2.892356         1.873184         3.446771
 H        -0.722965         3.529279         3.404508
 H         0.882201         2.538696         1.402789
 H         0.945050         1.420848         2.800404
