19
Iteration:  1125
 O        -2.817393         3.888306         1.533602
 C        -1.894244         2.831711         1.653852
 C        -1.272719         2.002231         0.373297
 C        -0.543374         0.980961         1.202193
 O        -0.015921        -0.197340         0.505210
 C        -1.594575         0.463932         2.302451
 C        -1.972322         1.751017         2.838313
 C        -0.793933         2.750349         2.799585
 C         0.371824         1.873112         2.180149
 H        -3.592007         3.483191         1.156004
 H        -2.124968         1.579509        -0.308252
 H        -0.678102         2.720204        -0.202860
 H         0.974528        -0.209530         0.581663
 H        -2.468998         0.146549         1.749730
 H        -1.197571        -0.399404         2.862740
 H        -2.837947         1.915829         3.455016
 H        -0.660894         3.583018         3.465353
 H         1.102982         2.406055         1.577438
 H         0.879292         1.280332         2.958026
