19
Iteration:  2380charge 0 multiplicity 1
 O        -2.694536         3.857192         1.600450
 C        -1.870372         2.708637         1.604647
 C        -1.543589         1.871312         0.402296
 C        -0.568755         1.011402         1.221609
 O         0.028622        -0.138657         0.626381
 C        -1.555539         0.477608         2.325520
 C        -2.027438         1.809291         2.820241
 C        -0.792266         2.781506         2.635288
 C         0.408051         1.933708         2.054007
 H        -3.581058         3.655724         1.338493
 H        -2.324339         1.330007         0.006026
 H        -0.842128         2.295691        -0.269283
 H         0.962773         0.050613         0.531134
 H        -2.311474        -0.167641         1.721463
 H        -1.082713        -0.208205         3.059401
 H        -2.644256         2.126409         3.647583
 H        -0.703296         3.582488         3.348462
 H         1.130222         2.654009         1.513218
 H         1.121125         1.462219         2.824632
