19
Iteration:  4922charge 0 multiplicity 1
 O        -2.929847         3.758165         1.567378
 C        -1.958140         2.738964         1.627742
 C        -1.517513         1.868099         0.460210
 C        -0.592475         0.945264         1.272838
 O         0.114097        -0.115681         0.488080
 C        -1.588851         0.523852         2.381534
 C        -1.926539         1.927637         2.847985
 C        -0.611459         2.819611         2.606687
 C         0.410199         1.847037         2.029133
 H        -2.508848         4.614523         1.428032
 H        -2.330552         1.336228        -0.033356
 H        -0.915458         2.377567        -0.297338
 H         0.416934        -0.733527         1.239902
 H        -2.497815         0.071651         1.908041
 H        -1.272160        -0.135691         3.169011
 H        -2.508855         2.217735         3.719578
 H        -0.476775         3.784552         3.174289
 H         1.291556         2.365706         1.456456
 H         0.937538         1.172200         2.740155
