19
Iteration:  1846
 O        -2.802702         3.944652         1.471795
 C        -1.969196         2.770983         1.652018
 C        -1.408902         2.006456         0.435318
 C        -0.515996         0.939960         1.225372
 O         0.179820        -0.156657         0.641571
 C        -1.599980         0.419586         2.249900
 C        -1.979802         1.818749         2.796423
 C        -0.765317         2.737934         2.661703
 C         0.357770         1.824715         2.157721
 H        -3.541309         3.875629         2.110828
 H        -2.270811         1.599753        -0.049402
 H        -0.812060         2.686916        -0.210712
 H        -0.438936        -0.512493        -0.129491
 H        -2.471837        -0.152275         1.865398
 H        -1.107952        -0.140851         3.029255
 H        -2.517143         1.817975         3.753788
 H        -0.631107         3.602960         3.302496
 H         0.985498         2.479906         1.564165
 H         1.031373         1.315884         2.917347
