19
Iteration:  1777charge 0 multiplicity 1
 O        -2.726086         3.929740         1.336730
 C        -1.937689         2.825488         1.658056
 C        -1.423103         2.003882         0.555087
 C        -0.525897         0.937548         1.309978
 O         0.029139        -0.052613         0.485864
 C        -1.537744         0.376856         2.278456
 C        -2.018340         1.694850         2.812809
 C        -0.827157         2.669066         2.716250
 C         0.297756         1.856970         2.141720
 H        -2.341177         4.578904         1.932634
 H        -2.091855         1.233685         0.184139
 H        -1.062964         2.708234        -0.222741
 H         0.865108        -0.328708         0.859581
 H        -2.471929        -0.132031         1.777450
 H        -1.122952        -0.335517         3.017567
 H        -2.544392         1.792018         3.773287
 H        -0.685297         3.488304         3.445151
 H         0.963060         2.490281         1.466402
 H         0.975178         1.495207         3.033606
