19
Iteration:  1908charge 0 multiplicity 1
 O        -2.730018         3.982717         1.502152
 C        -1.965944         2.773705         1.701681
 C        -1.437880         1.900959         0.508908
 C        -0.533863         0.880915         1.229663
 O         0.099094        -0.090224         0.445917
 C        -1.518124         0.394369         2.419590
 C        -2.058555         1.791532         2.849922
 C        -0.856956         2.778191         2.650622
 C         0.339783         1.824379         2.137227
 H        -3.160619         4.062945         0.632368
 H        -2.234717         1.556726        -0.177467
 H        -0.834617         2.570116        -0.183843
 H         1.119809        -0.002448         0.272145
 H        -2.369152        -0.147365         1.861727
 H        -1.044097        -0.196625         3.222200
 H        -2.554832         1.975090         3.765012
 H        -0.660030         3.645320         3.212850
 H         1.052006         2.464876         1.571286
 H         0.828421         1.063404         2.798111
