19
Iteration:  4402
 O        -2.884418         3.765558         1.426183
 C        -1.900657         2.780857         1.655955
 C        -1.535617         1.826227         0.508196
 C        -0.543517         0.921970         1.268519
 O        -0.032718        -0.128572         0.428465
 C        -1.591688         0.475275         2.451994
 C        -1.838263         1.955985         2.949719
 C        -0.587054         2.903314         2.561754
 C         0.412630         1.901776         2.000236
 H        -3.361437         3.791034         2.296336
 H        -2.394522         1.218085         0.189910
 H        -1.088046         2.277568        -0.339339
 H         0.636788        -0.517712         0.938659
 H        -2.483648        -0.114195         2.168877
 H        -1.003186        -0.065394         3.247655
 H        -2.415308         2.223532         3.800666
 H        -0.553837         3.747463         3.252948
 H         1.145474         2.136739         1.305447
 H         0.872097         1.329781         2.802505
