19
Iteration:  3303
 O        -2.743445         3.852238         1.463957
 C        -1.835107         2.836368         1.632798
 C        -1.365199         1.907619         0.573771
 C        -0.571469         0.835806         1.375178
 O         0.088013         0.025659         0.436852
 C        -1.643760         0.421670         2.381910
 C        -2.075316         1.834415         2.736589
 C        -0.808334         2.710451         2.659819
 C         0.398409         1.848739         2.078533
 H        -3.571711         3.617281         1.895885
 H        -2.243711         1.355152         0.183539
 H        -0.772290         2.551163        -0.234468
 H         0.886406         0.487869         0.312926
 H        -2.452219         0.021870         1.802998
 H        -1.362495        -0.196614         3.241564
 H        -2.831046         2.057414         3.467042
 H        -0.933256         3.190869         3.615418
 H         1.233055         2.274161         1.370565
 H         1.020260         1.256646         2.772337
