19
Iteration:   749
 O        -2.697083         3.932273         1.465848
 C        -1.919390         2.816518         1.701219
 C        -1.248762         2.114475         0.574412
 C        -0.523791         0.985975         1.295819
 O         0.140631        -0.061069         0.541884
 C        -1.668007         0.404232         2.152467
 C        -2.111550         1.720817         2.641681
 C        -0.840974         2.637772         2.769716
 C         0.318629         1.777472         2.223463
 H        -3.577504         3.764187         1.931699
 H        -1.875113         1.434468         0.038244
 H        -0.651487         2.652853        -0.084828
 H         0.394559         0.211609        -0.398480
 H        -2.350908        -0.137386         1.447048
 H        -1.348392        -0.322714         2.890010
 H        -2.966221         1.822489         3.279191
 H        -0.803283         3.146713         3.725168
 H         1.128518         2.316493         1.790815
 H         0.560696         1.092240         3.062852
