19
Iteration:  3312
 O        -2.756115         3.913519         1.507647
 C        -1.871530         2.823990         1.642253
 C        -1.368540         1.870885         0.479993
 C        -0.560409         0.872982         1.351962
 O         0.092844        -0.015881         0.463407
 C        -1.652285         0.412856         2.352114
 C        -2.115651         1.800524         2.741417
 C        -0.770200         2.735223         2.714289
 C         0.393831         1.829355         2.119092
 H        -3.604864         3.597504         1.854614
 H        -2.049913         1.354988        -0.248444
 H        -0.521570         2.235062        -0.127959
 H         0.841114         0.466778         0.167939
 H        -2.356656        -0.167680         1.751509
 H        -1.277515        -0.025503         3.224350
 H        -2.697462         1.961026         3.656747
 H        -0.642837         3.593993         3.430854
 H         0.812012         2.477404         1.235166
 H         1.119519         1.395768         2.814565
