19
Iteration:   644
 O        -2.699939         3.884708         1.496835
 C        -1.906112         2.720533         1.652733
 C        -1.257196         2.115640         0.524434
 C        -0.541791         0.958205         1.254755
 O         0.122056         0.058358         0.352651
 C        -1.673536         0.374646         2.224291
 C        -2.119462         1.729965         2.733135
 C        -0.899380         2.616098         2.817406
 C         0.253294         1.716001         2.381885
 H        -2.153839         4.113702         0.696936
 H        -1.993861         1.715374        -0.271697
 H        -0.596297         2.907497         0.021843
 H         1.057434         0.294492         0.219130
 H        -2.467358        -0.117878         1.628508
 H        -1.318179        -0.309073         3.016729
 H        -2.848239         1.835681         3.525540
 H        -0.860299         3.444338         3.534488
 H         1.002568         2.403101         1.909369
 H         0.820581         1.248109         3.173697
