19
Iteration:  4939charge 0 multiplicity 1
 O        -2.862059         3.630989         1.676975
 C        -1.768944         2.814538         1.557404
 C        -1.433072         1.849922         0.397057
 C        -0.560203         0.849449         1.305677
 O         0.059992        -0.014453         0.429697
 C        -1.698167         0.534751         2.450370
 C        -1.870648         1.962967         2.897692
 C        -0.701821         2.842415         2.503214
 C         0.318554         1.868787         2.106733
 H        -2.822225         4.302676         0.956241
 H        -2.363796         1.381632         0.022964
 H        -1.012344         2.422615        -0.472408
 H         0.521367        -0.796214         0.927113
 H        -2.630660         0.047244         2.097194
 H        -1.270564        -0.172546         3.204993
 H        -2.741182         2.261553         3.429035
 H        -0.466431         3.670049         3.116469
 H         1.061997         2.201257         1.470327
 H         0.802375         1.540580         3.035040
