19
Iteration:   854charge 0 multiplicity 1
 O        -2.757398         3.849736         1.730187
 C        -1.870941         2.705785         1.620009
 C        -1.240763         2.070569         0.407235
 C        -0.560601         0.962903         1.257065
 O         0.122166        -0.078520         0.703459
 C        -1.767882         0.414674         2.082552
 C        -2.132053         1.752784         2.726126
 C        -0.802453         2.670494         2.711226
 C         0.341018         1.885592         2.118341
 H        -2.706281         4.368121         0.865793
 H        -2.008289         1.661617        -0.299929
 H        -0.562220         2.859543        -0.092856
 H         1.087693         0.070591         0.363917
 H        -2.502043        -0.071222         1.463358
 H        -1.204268        -0.318966         2.751755
 H        -3.059228         1.886076         3.228690
 H        -0.856145         3.573796         3.307741
 H         1.302669         2.321033         1.674392
 H         0.744100         1.151503         2.856246
