19
Iteration:  2337
 O        -2.608882         3.935012         1.464858
 C        -1.984414         2.732043         1.664820
 C        -1.470869         1.878810         0.509241
 C        -0.621603         0.878246         1.313122
 O         0.122798         0.019903         0.454765
 C        -1.508240         0.340808         2.455884
 C        -2.027752         1.794071         2.910362
 C        -0.828036         2.737048         2.598893
 C         0.311047         1.997228         1.979722
 H        -3.462348         3.766169         1.065858
 H        -2.303506         1.501011        -0.113092
 H        -0.828528         2.509536        -0.057989
 H         0.275594        -0.730299         0.955742
 H        -2.396643        -0.300172         2.105157
 H        -0.904203        -0.217841         3.189808
 H        -2.721832         1.960855         3.751565
 H        -0.717061         3.552073         3.284224
 H         1.111153         2.417355         1.299112
 H         0.962107         1.373235         2.726863
