19
Iteration:  4857
 O        -2.737454         3.870358         1.421445
 C        -1.950067         2.693517         1.609933
 C        -1.546149         1.687244         0.498872
 C        -0.534052         0.965883         1.336704
 O        -0.005258         0.038993         0.355001
 C        -1.462783         0.443310         2.573523
 C        -1.992283         1.899765         2.922624
 C        -0.785800         2.724601         2.592228
 C         0.341507         1.964591         2.041491
 H        -2.244500         4.629756         1.828999
 H        -2.356957         1.017523         0.180924
 H        -1.056601         2.148892        -0.358279
 H         0.613232        -0.637542         0.782694
 H        -2.125236        -0.208656         1.989840
 H        -0.941414        -0.103862         3.397042
 H        -2.550339         1.934263         3.806207
 H        -0.551362         3.626386         3.155732
 H         0.979461         2.554212         1.279585
 H         0.935913         1.348081         2.709252
