19
Iteration:   950charge 0 multiplicity 1
 O        -2.625985         3.974321         1.496577
 C        -1.852997         2.813458         1.680244
 C        -1.439482         2.069230         0.477527
 C        -0.528999         0.900081         1.247742
 O         0.278330        -0.139464         0.609221
 C        -1.648485         0.401743         2.183295
 C        -2.110322         1.763033         2.727470
 C        -0.911976         2.608412         2.761180
 C         0.266611         1.835795         2.137331
 H        -3.383102         3.864727         2.117964
 H        -2.407019         1.690820         0.116299
 H        -0.986384         2.622319        -0.291617
 H         0.285171         0.107424        -0.376691
 H        -2.475156        -0.101858         1.653729
 H        -1.282150        -0.092332         3.101079
 H        -2.823360         1.939281         3.512465
 H        -0.850390         3.403743         3.498481
 H         0.984480         2.489091         1.595622
 H         0.896703         1.415268         2.913513
