19
Iteration:  4964charge 0 multiplicity 1
 O        -2.842883         3.819527         1.516555
 C        -1.891596         2.789323         1.685423
 C        -1.424035         1.866918         0.440473
 C        -0.564358         0.881503         1.299432
 O        -0.069241        -0.025275         0.442956
 C        -1.521433         0.467798         2.461323
 C        -1.941720         1.907225         2.849198
 C        -0.695198         2.789046         2.625096
 C         0.383215         1.871476         2.068477
 H        -3.243712         3.494526         0.665892
 H        -2.198964         1.421167        -0.168866
 H        -0.736521         2.375249        -0.260386
 H         0.606101        -0.613136         0.918537
 H        -2.379093        -0.168696         2.048300
 H        -1.043998        -0.140876         3.180023
 H        -2.649489         2.084928         3.659412
 H        -0.362891         3.615218         3.296513
 H         1.173873         2.315837         1.388129
 H         0.955067         1.435611         2.877766
