19
Iteration:  2189
 O        -2.615943         3.863434         1.419094
 C        -1.941943         2.590171         1.634473
 C        -1.463897         1.948582         0.439997
 C        -0.595065         0.939839         1.257543
 O         0.124927         0.054854         0.414255
 C        -1.556052         0.415729         2.515549
 C        -1.972472         1.773975         2.942830
 C        -0.819532         2.764304         2.688548
 C         0.290872         1.922856         2.139316
 H        -3.542139         3.616637         1.071261
 H        -2.196677         1.499636        -0.135051
 H        -0.750434         2.530534        -0.133440
 H        -0.453822        -0.381514        -0.228948
 H        -2.468282        -0.135864         2.243986
 H        -1.058668        -0.277312         3.289076
 H        -2.775838         2.049073         3.671775
 H        -0.582703         3.709540         3.159634
 H         1.127642         2.558704         1.596147
 H         0.938665         1.277229         2.823345
