19
Iteration:  2680charge 0 multiplicity 1
 O        -2.701192         3.910363         1.399269
 C        -1.956724         2.707489         1.656122
 C        -1.377744         1.900888         0.502633
 C        -0.528743         0.942794         1.303813
 O        -0.026305         0.004052         0.417102
 C        -1.635131         0.413578         2.275112
 C        -1.987170         1.786188         2.897848
 C        -0.725851         2.754637         2.674933
 C         0.401687         1.911211         2.251265
 H        -3.599453         3.576460         1.329527
 H        -2.141141         1.396675        -0.100083
 H        -0.820504         2.586376        -0.072207
 H         0.549831        -0.675336         0.932925
 H        -2.415231        -0.113719         1.693913
 H        -1.256521        -0.419827         2.808031
 H        -2.680441         1.898112         3.761737
 H        -0.667436         3.713731         3.242399
 H         1.097990         2.300257         1.576525
 H         0.964259         1.514614         3.128127
