19
Iteration:  4195
 O        -2.810723         3.807489         1.535303
 C        -1.931797         2.783163         1.677393
 C        -1.613276         1.812118         0.558651
 C        -0.591313         0.909870         1.293793
 O         0.206989        -0.105790         0.587596
 C        -1.622650         0.503759         2.408201
 C        -1.897168         1.866932         2.855342
 C        -0.759059         2.841895         2.512921
 C         0.428051         1.870319         1.937798
 H        -2.271290         4.605555         1.489926
 H        -2.472690         1.186466         0.285439
 H        -1.259154         2.463695        -0.198879
 H        -0.270488        -0.639941        -0.081875
 H        -2.516463         0.173513         1.880061
 H        -1.269591        -0.284940         3.058176
 H        -2.447401         2.137329         3.844024
 H        -0.532334         3.699037         3.171100
 H         1.016014         2.342035         1.112857
 H         1.205766         1.430271         2.659309
