19
Iteration:  4199charge 0 multiplicity 1
 O        -2.833441         3.791913         1.515909
 C        -1.964791         2.799695         1.704099
 C        -1.579590         1.787154         0.561161
 C        -0.590920         0.898664         1.295551
 O         0.202624        -0.111357         0.591295
 C        -1.647804         0.499011         2.378678
 C        -1.910492         1.872824         2.900572
 C        -0.726826         2.822956         2.501571
 C         0.469573         1.886076         1.923771
 H        -2.361766         4.661452         1.672825
 H        -2.514139         1.267764         0.247366
 H        -1.090367         2.471400        -0.184834
 H        -0.249261        -0.451193        -0.206319
 H        -2.617925         0.294738         1.870661
 H        -1.326850        -0.147414         3.195563
 H        -2.341481         2.133816         3.809283
 H        -0.487270         3.738483         3.036333
 H         1.087290         2.324497         1.108105
 H         1.080744         1.413365         2.666433
