19
Iteration:   489charge 0 multiplicity 1
 O        -2.678644         3.954047         1.507944
 C        -1.884717         2.763443         1.722629
 C        -1.275913         2.035667         0.510418
 C        -0.531093         0.920082         1.230884
 O         0.232020        -0.108646         0.513909
 C        -1.649911         0.410648         2.141118
 C        -2.172523         1.729720         2.684160
 C        -0.892133         2.661482         2.775544
 C         0.258863         1.847611         2.272108
 H        -3.378946         4.142433         2.118985
 H        -2.177297         1.828108        -0.178016
 H        -0.509306         2.620103        -0.116783
 H         0.740859         0.448089        -0.092584
 H        -2.527265         0.060561         1.487548
 H        -1.506046        -0.367592         2.882980
 H        -2.994314         1.891917         3.399193
 H        -0.875717         3.242948         3.692074
 H         0.983015         2.409044         1.634958
 H         0.842643         1.170785         2.890385
