19
Iteration:   227charge 0 multiplicity 1
 O        -2.545826         4.141683         1.579036
 C        -1.977145         2.699144         1.653158
 C        -1.489308         1.926243         0.484325
 C        -0.545171         0.940046         1.301229
 O         0.243317         0.057821         0.501643
 C        -1.601752         0.318886         2.178633
 C        -2.053576         1.652223         2.812338
 C        -0.922126         2.616337         2.696775
 C         0.260234         1.863768         2.124573
 H        -3.498337         4.222358         1.259670
 H        -2.145636         1.370891        -0.289113
 H        -0.792243         2.575719        -0.079950
 H         0.340592        -0.754240         1.109069
 H        -2.298540        -0.167314         1.406856
 H        -1.275429        -0.398923         2.946698
 H        -2.856497         1.747937         3.574948
 H        -0.808966         3.450453         3.419307
 H         0.921819         2.656429         1.605774
 H         0.885069         1.316799         2.854448
