19
Iteration:  1581
 O        -2.795771         3.930908         1.569627
 C        -1.876066         2.795716         1.667651
 C        -1.452167         1.946212         0.386965
 C        -0.522334         0.882601         1.295084
 O         0.183900        -0.138643         0.558556
 C        -1.655024         0.460926         2.288583
 C        -2.044893         1.792451         2.782054
 C        -0.812205         2.634320         2.766931
 C         0.397125         1.915578         2.118371
 H        -2.240695         4.575002         1.071940
 H        -2.292204         1.570945        -0.198132
 H        -0.823518         2.532029        -0.381167
 H        -0.338002        -0.572881        -0.140985
 H        -2.478227        -0.031498         1.758367
 H        -1.293512        -0.133411         3.061996
 H        -2.803651         2.014954         3.522808
 H        -0.665390         3.535287         3.362325
 H         0.884719         2.593425         1.468130
 H         1.104051         1.501108         2.877681
