19
Iteration:  1320
 O        -2.674779         4.003154         1.450194
 C        -1.900195         2.806832         1.642817
 C        -1.491976         1.987106         0.444561
 C        -0.649871         0.956361         1.236853
 O         0.106107        -0.042881         0.592123
 C        -1.532943         0.289123         2.295393
 C        -2.045645         1.718163         2.820749
 C        -0.821177         2.632649         2.736192
 C         0.287910         1.862999         2.058403
 H        -2.723861         4.626117         2.185667
 H        -2.235473         1.476523        -0.068487
 H        -0.829478         2.261178        -0.367537
 H         1.085101         0.189314         0.658453
 H        -2.334272        -0.339233         1.817730
 H        -0.931462        -0.262034         3.027141
 H        -2.714774         1.868212         3.665907
 H        -0.582058         3.437050         3.497260
 H         0.948009         2.397837         1.352109
 H         0.930323         1.343372         2.839819
