19
Iteration:  3790
 O        -2.821797         3.770302         1.512430
 C        -1.859708         2.789985         1.639804
 C        -1.464311         1.945931         0.427520
 C        -0.582792         0.874922         1.227721
 O         0.080309        -0.025967         0.484529
 C        -1.579555         0.400229         2.424799
 C        -1.982383         1.845147         2.824089
 C        -0.734520         2.795994         2.598638
 C         0.272009         1.845782         2.176757
 H        -2.263263         4.551567         1.325686
 H        -2.329700         1.349888         0.044918
 H        -0.840319         2.501731        -0.304311
 H         0.981523         0.066703         0.609291
 H        -2.417292        -0.253005         2.151869
 H        -0.947244        -0.054567         3.250119
 H        -2.636898         2.149929         3.607410
 H        -0.537592         3.720301         3.095693
 H         1.138921         2.232601         1.584360
 H         0.554120         1.244303         2.957768
