19
Iteration:  4881charge 0 multiplicity 1
 O        -2.634715         3.819835         1.407611
 C        -1.891623         2.673780         1.699654
 C        -1.529752         1.848866         0.515871
 C        -0.587159         0.912080         1.235135
 O        -0.040220        -0.127319         0.461958
 C        -1.441680         0.394840         2.501230
 C        -1.993823         1.806137         2.870062
 C        -0.876121         2.785936         2.719549
 C         0.347501         2.153158         1.924574
 H        -2.182129         4.591950         1.749193
 H        -2.399729         1.366780        -0.028931
 H        -1.046028         2.635812        -0.117681
 H         0.401912        -0.767555         0.941889
 H        -2.107055        -0.381346         2.201021
 H        -0.689500         0.046592         3.314856
 H        -2.771970         1.809448         3.662755
 H        -0.924966         3.740753         3.338251
 H         0.677927         2.670957         1.037880
 H         1.180670         1.703356         2.497018
