19
Iteration:  4725
 O        -2.767517         3.809951         1.366093
 C        -1.878549         2.821674         1.700639
 C        -1.635243         1.716143         0.603058
 C        -0.605599         0.853760         1.340947
 O         0.151575         0.095181         0.401922
 C        -1.638049         0.335592         2.477436
 C        -1.870676         1.847505         2.938546
 C        -0.659413         2.863728         2.555515
 C         0.300025         1.924769         1.977087
 H        -2.341346         4.667648         1.645673
 H        -2.545804         1.144016         0.357815
 H        -1.110324         2.144150        -0.274675
 H         0.396909        -0.887308         0.665514
 H        -2.656583        -0.008724         2.102000
 H        -1.220655        -0.275585         3.303857
 H        -2.455308         2.032617         3.915103
 H        -0.475478         3.649562         3.304875
 H         0.711047         2.370243         1.025215
 H         1.077163         1.726954         2.647714
