19
Iteration:  4952
 O        -2.856075         3.727163         1.614272
 C        -1.793296         2.763123         1.510896
 C        -1.382603         1.849585         0.464941
 C        -0.677706         0.921731         1.353866
 O        -0.009021        -0.003483         0.403083
 C        -1.587167         0.467797         2.452023
 C        -1.850991         1.909437         2.859286
 C        -0.709461         2.896670         2.634605
 C         0.361923         1.828925         2.094438
 H        -3.322135         3.916941         0.789951
 H        -2.186471         1.272884         0.035306
 H        -0.622470         2.120492        -0.291062
 H         0.497948        -0.581750         0.893977
 H        -2.581508         0.043403         2.059796
 H        -1.145885        -0.127374         3.205039
 H        -2.659806         2.215224         3.469406
 H        -0.670643         3.878054         3.108842
 H         1.015499         2.277914         1.349193
 H         0.860806         1.161867         2.774128
