19
Iteration:  4801
 O        -2.923612         3.688683         1.659480
 C        -1.890171         2.706934         1.626110
 C        -1.382324         1.926513         0.403591
 C        -0.602155         0.960383         1.277950
 O        -0.045796        -0.162640         0.572392
 C        -1.620421         0.560670         2.398792
 C        -1.909587         1.877598         2.851091
 C        -0.658666         2.785069         2.600853
 C         0.467525         1.996139         1.968219
 H        -2.912166         4.100628         0.799895
 H        -2.192975         1.393084        -0.088173
 H        -0.788089         2.469541        -0.333014
 H         0.743938        -0.439876         0.934342
 H        -2.507845        -0.010582         1.949191
 H        -1.219297        -0.139914         3.130250
 H        -2.666744         2.054267         3.612772
 H        -0.450436         3.568125         3.286758
 H         0.991202         2.593415         1.098577
 H         1.325151         1.628473         2.499807
