19
Iteration:  2357charge 0 multiplicity 1
 O        -2.701750         4.054386         1.562036
 C        -1.912661         2.745103         1.645921
 C        -1.517880         1.880285         0.427145
 C        -0.522870         0.903211         1.261136
 O         0.098343        -0.157914         0.486802
 C        -1.458299         0.427415         2.397776
 C        -2.025253         1.764627         2.795800
 C        -0.837215         2.751889         2.694885
 C         0.257211         1.910818         2.040348
 H        -3.497677         3.801111         1.006432
 H        -2.303275         1.283413         0.158286
 H        -0.998545         2.454107        -0.363036
 H         0.855582        -0.403137         1.045183
 H        -2.184864        -0.426917         2.109037
 H        -0.952151         0.116564         3.353217
 H        -2.756176         1.809481         3.626563
 H        -0.601253         3.638910         3.258466
 H         0.822631         2.577836         1.264466
 H         1.147449         1.609234         2.711778
