19
Iteration:  3793charge 0 multiplicity 1
 O        -2.824024         3.750076         1.528628
 C        -1.853009         2.807635         1.650911
 C        -1.467871         1.952877         0.409438
 C        -0.587974         0.904708         1.249700
 O         0.081984        -0.048584         0.482661
 C        -1.567972         0.416726         2.417894
 C        -1.990899         1.852061         2.798600
 C        -0.742572         2.786974         2.599901
 C         0.294113         1.838331         2.166602
 H        -2.305136         4.557591         1.255918
 H        -2.332005         1.348766         0.127559
 H        -0.953811         2.506652        -0.364676
 H         1.061434         0.066645         0.655282
 H        -2.412465        -0.222849         2.151675
 H        -1.090696        -0.008154         3.229806
 H        -2.718887         2.125495         3.615355
 H        -0.532299         3.722707         3.113166
 H         1.160797         2.199441         1.620834
 H         0.654448         1.162491         3.003588
