19
Iteration:  4665
 O        -2.950203         3.753823         1.486965
 C        -1.828588         2.838436         1.589415
 C        -1.475630         1.983315         0.402719
 C        -0.603835         0.917656         1.215919
 O        -0.107745        -0.198580         0.544291
 C        -1.437117         0.463311         2.539372
 C        -1.849805         1.785745         2.859107
 C        -0.759178         2.804259         2.649876
 C         0.436328         1.967967         1.954694
 H        -2.883066         4.461309         2.191823
 H        -2.261525         1.617690        -0.265779
 H        -0.712077         2.376369        -0.261123
 H         0.621265        -0.575362         1.154449
 H        -2.291183        -0.158108         2.316961
 H        -0.789722        -0.088621         3.223756
 H        -2.692421         2.052861         3.444291
 H        -0.409106         3.616056         3.307691
 H         1.008201         2.580568         1.264324
 H         1.208648         1.497858         2.691626
