19
Iteration:   181charge 0 multiplicity 1
 O        -2.937298         3.850786         1.552382
 C        -1.899950         2.819833         1.654402
 C        -1.210464         2.088190         0.486884
 C        -0.512067         0.926451         1.248946
 O         0.145982        -0.098056         0.460167
 C        -1.630280         0.479667         2.208384
 C        -2.006930         1.870550         2.729683
 C        -0.785602         2.698640         2.810760
 C         0.411195         1.759526         2.248642
 H        -3.787195         3.404767         1.379223
 H        -1.998395         1.512779        -0.142335
 H        -0.631972         2.683056        -0.270564
 H        -0.603546        -0.545098        -0.048112
 H        -2.542629         0.095873         1.683748
 H        -1.225719        -0.248585         2.956810
 H        -2.862458         2.048477         3.380719
 H        -0.503543         3.325714         3.621040
 H         1.228888         2.206694         1.607735
 H         0.878748         1.166269         3.092333
