19
Iteration:  3124charge 0 multiplicity 1
 O        -2.790727         4.019668         1.542809
 C        -1.943102         2.781889         1.609792
 C        -1.399232         1.983910         0.390043
 C        -0.537062         0.885407         1.267926
 O         0.152954        -0.040266         0.565060
 C        -1.610260         0.428871         2.241898
 C        -1.950146         1.714420         2.811826
 C        -0.827008         2.759827         2.635426
 C         0.387753         1.790439         2.193964
 H        -3.684003         3.787289         1.798878
 H        -2.053731         1.419712        -0.410563
 H        -0.707978         2.673279        -0.063077
 H         0.143687        -0.988450         0.976096
 H        -2.459769        -0.044307         1.810400
 H        -1.042036        -0.178242         2.848003
 H        -2.727259         1.724491         3.546245
 H        -0.767842         3.619356         3.315171
 H         1.166809         2.426356         1.709770
 H         0.566012         1.164523         3.038649
