19
Iteration:  4483charge 0 multiplicity 1
 O        -2.783224         3.790086         1.479821
 C        -1.914363         2.648986         1.709239
 C        -1.487994         1.847623         0.501264
 C        -0.543817         0.949866         1.251558
 O        -0.161198        -0.078648         0.432393
 C        -1.452630         0.535422         2.502864
 C        -1.910222         1.825508         2.892346
 C        -0.708294         2.809478         2.586692
 C         0.398432         2.009834         2.037656
 H        -2.546663         3.966502         0.557394
 H        -2.327229         1.278706         0.060456
 H        -1.030851         2.382655        -0.411873
 H         0.475279        -0.553123         0.983178
 H        -2.358636        -0.063889         2.180429
 H        -0.895336         0.036093         3.275699
 H        -2.598021         1.798833         3.749613
 H        -0.674951         3.621286         3.287449
 H         1.112959         2.505368         1.270817
 H         1.044694         1.525292         2.780934
