19
Iteration:  4710
 O        -2.800890         3.918621         1.393009
 C        -1.968735         2.706238         1.671697
 C        -1.569701         1.765499         0.537406
 C        -0.570050         0.811005         1.376655
 O         0.092437        -0.028941         0.398021
 C        -1.555947         0.387252         2.465124
 C        -1.885021         1.904721         2.984677
 C        -0.759578         2.764360         2.587479
 C         0.408448         2.038611         1.936302
 H        -2.453469         4.621067         1.995284
 H        -2.441647         1.235783         0.228262
 H        -1.133188         2.224312        -0.330577
 H         0.307064        -0.855123         0.930931
 H        -2.345692        -0.168936         1.891513
 H        -1.275457        -0.366785         3.170151
 H        -2.432627         2.145044         3.903296
 H        -0.596944         3.734771         3.127284
 H         1.053998         2.580733         1.188550
 H         1.130292         1.485015         2.626862
