19
Iteration:   570charge 0 multiplicity 1
 O        -2.764948         3.952881         1.585276
 C        -1.927704         2.807123         1.623821
 C        -1.233845         2.063477         0.431945
 C        -0.529831         0.932479         1.298236
 O         0.136601        -0.037988         0.609559
 C        -1.649562         0.379354         2.032222
 C        -2.090717         1.669528         2.697847
 C        -0.900536         2.584322         2.761674
 C         0.288755         1.818083         2.236841
 H        -2.371757         4.660865         2.129273
 H        -1.865375         1.630032        -0.317446
 H        -0.611349         2.841766         0.038993
 H         0.814335         0.326412        -0.064270
 H        -2.497576        -0.088036         1.602987
 H        -1.277316        -0.144807         2.939867
 H        -2.929185         1.741565         3.384193
 H        -0.782471         3.257047         3.627689
 H         1.059650         2.273410         1.610890
 H         0.704103         1.206910         3.050689
