19
Iteration:  2415
 O        -2.863579         3.874888         1.430051
 C        -1.918849         2.807958         1.696067
 C        -1.407184         1.914327         0.416249
 C        -0.566956         0.915387         1.271065
 O         0.149476        -0.146285         0.537433
 C        -1.609988         0.458095         2.389192
 C        -1.949471         1.866621         2.921284
 C        -0.719452         2.774746         2.629037
 C         0.367898         1.870327         2.107241
 H        -3.570610         3.318320         1.733890
 H        -2.118348         1.802945        -0.383346
 H        -0.675303         2.475719        -0.037659
 H        -0.051562        -0.062687        -0.435494
 H        -2.462532        -0.081341         1.884216
 H        -1.190581        -0.082448         3.242402
 H        -2.419584         2.143783         3.848305
 H        -0.678714         3.484355         3.468536
 H         1.017590         2.355456         1.364287
 H         0.900779         1.100597         2.785149
