19
Iteration:  3799charge 0 multiplicity 1
 O        -2.830812         3.744276         1.562182
 C        -1.852078         2.787006         1.622916
 C        -1.475877         1.944484         0.422661
 C        -0.596851         0.976861         1.300919
 O         0.100833        -0.097370         0.484698
 C        -1.564827         0.488476         2.377825
 C        -2.014272         1.873615         2.773646
 C        -0.751674         2.782549         2.633997
 C         0.361357         1.789580         2.141868
 H        -2.566066         4.570312         1.098340
 H        -2.409831         1.419329         0.098436
 H        -1.127922         2.459650        -0.522053
 H         0.983488         0.005728         0.687316
 H        -2.412003        -0.140842         2.035295
 H        -1.136451        -0.088413         3.335490
 H        -2.776808         2.004889         3.477951
 H        -0.544054         3.623410         3.287604
 H         1.252646         2.260245         1.633865
 H         0.815235         1.218837         2.940280
