19
Iteration:   390charge 0 multiplicity 1
 O        -2.509808         3.969651         1.474044
 C        -1.857668         2.725850         1.670339
 C        -1.451660         1.992393         0.534820
 C        -0.528830         0.957759         1.276363
 O         0.111206         0.124490         0.475973
 C        -1.580080         0.324284         2.210591
 C        -2.208825         1.697359         2.714887
 C        -0.948987         2.626686         2.799848
 C         0.326998         1.775881         2.313669
 H        -2.989587         3.836333         0.648403
 H        -2.241147         1.349648         0.033277
 H        -0.933669         2.626000        -0.267566
 H         0.622106         0.658427        -0.080416
 H        -2.330888        -0.326396         1.658496
 H        -1.082796        -0.372885         2.874461
 H        -2.999156         1.775045         3.417068
 H        -0.972174         3.478564         3.443539
 H         1.166220         2.272974         1.736270
 H         0.807420         1.399093         3.207025
