19
Iteration:   987
 O        -2.718714         3.853557         1.693766
 C        -1.875590         2.757524         1.597916
 C        -1.266308         2.043200         0.390835
 C        -0.534701         0.972196         1.235474
 O         0.133064        -0.131940         0.661598
 C        -1.700243         0.491703         2.180405
 C        -2.011996         1.775623         2.784506
 C        -0.855326         2.717635         2.620849
 C         0.303945         1.822772         2.202852
 H        -3.546278         3.765314         1.131351
 H        -2.101005         1.755039        -0.246275
 H        -0.544921         2.682708        -0.191767
 H         0.087946        -0.074359        -0.356487
 H        -2.483645         0.019169         1.578894
 H        -1.373924        -0.341180         2.877575
 H        -2.779604         1.890449         3.574955
 H        -0.695531         3.544967         3.301534
 H         1.019868         2.427659         1.569865
 H         0.752440         1.215294         3.046215
