19
Iteration:   601charge 0 multiplicity 1
 O        -2.745374         3.829428         1.689820
 C        -1.825409         2.799516         1.655967
 C        -1.327755         2.177102         0.356966
 C        -0.516571         0.941288         1.228283
 O         0.230722        -0.177481         0.640611
 C        -1.711328         0.480684         2.010909
 C        -2.110223         1.714344         2.721281
 C        -0.898830         2.594669         2.810776
 C         0.267955         1.861831         2.227275
 H        -2.618478         4.633900         1.136449
 H        -2.182992         1.838143        -0.329442
 H        -0.719971         2.974737        -0.186342
 H         1.009620         0.107883         0.203872
 H        -2.603449         0.053237         1.560037
 H        -1.477173        -0.283195         2.786972
 H        -3.089497         1.943814         3.075985
 H        -0.827083         3.294809         3.640908
 H         1.176371         2.347000         1.834555
 H         0.709068         1.214302         2.975114
