19
Iteration:  4585
 O        -2.744103         3.932523         1.431909
 C        -2.015860         2.697069         1.714923
 C        -1.584211         1.888734         0.492600
 C        -0.483725         0.863364         1.314804
 O         0.002997        -0.127866         0.419151
 C        -1.435980         0.459950         2.588352
 C        -2.031955         1.781520         2.886494
 C        -0.763212         2.738948         2.570727
 C         0.387869         2.009739         1.900672
 H        -2.239354         4.668770         1.867727
 H        -2.412193         1.178644         0.234489
 H        -1.174576         2.456601        -0.385954
 H         0.576338        -0.821680         0.898777
 H        -1.994835        -0.405643         2.304477
 H        -0.797179         0.166121         3.458318
 H        -2.713012         2.096114         3.722707
 H        -0.609293         3.679672         3.120980
 H         0.779526         2.573050         1.032476
 H         1.230899         1.659354         2.606287
