19
Iteration:  2656charge 0 multiplicity 1
 O        -2.670718         3.937279         1.476283
 C        -1.890957         2.814650         1.636261
 C        -1.383490         1.997447         0.466224
 C        -0.605872         0.910612         1.212882
 O         0.097061        -0.085436         0.461172
 C        -1.521893         0.429973         2.411191
 C        -2.079482         1.753259         2.808161
 C        -0.843264         2.691395         2.772849
 C         0.318249         1.901360         2.099595
 H        -3.464165         3.669844         1.000203
 H        -2.353145         1.691044         0.045720
 H        -0.732810         2.519668        -0.330361
 H         0.176848        -0.839065         1.022359
 H        -2.126289        -0.447326         2.127165
 H        -0.858371        -0.034465         3.108334
 H        -2.797490         1.999502         3.550270
 H        -0.822075         3.409920         3.602714
 H         0.879731         2.471728         1.416651
 H         1.035058         1.353685         2.677629
