19
Iteration:   185charge 0 multiplicity 1
 O        -2.891451         3.827251         1.580094
 C        -1.903668         2.837140         1.643403
 C        -1.230764         2.073106         0.481249
 C        -0.466015         0.919939         1.225458
 O         0.161496        -0.096405         0.458874
 C        -1.626871         0.491196         2.232470
 C        -2.042291         1.898278         2.740173
 C        -0.790431         2.662180         2.802501
 C         0.369666         1.769195         2.232273
 H        -3.737441         3.345167         1.392304
 H        -2.139403         1.719945        -0.190809
 H        -0.680931         2.707273        -0.217540
 H        -0.501728        -0.699846         0.058398
 H        -2.531458         0.055765         1.676268
 H        -1.296241        -0.243543         2.963428
 H        -2.978935         2.163134         3.280747
 H        -0.538445         3.396519         3.602550
 H         1.197475         2.290710         1.643365
 H         0.855888         1.164744         2.992088
