19
Iteration:  2626
 O        -2.598754         3.952816         1.653560
 C        -1.959934         2.684946         1.578674
 C        -1.416847         1.899420         0.428100
 C        -0.555701         0.959184         1.281424
 O         0.158685        -0.032129         0.552017
 C        -1.586384         0.437771         2.355492
 C        -2.041559         1.797656         2.808206
 C        -0.866362         2.720524         2.622594
 C         0.297213         1.904909         2.047590
 H        -3.360283         4.055204         1.054698
 H        -2.286142         1.458437        -0.064704
 H        -0.883826         2.340245        -0.293549
 H         0.024934        -0.986303         0.906775
 H        -2.309330        -0.058377         1.667234
 H        -1.095354        -0.263682         3.084493
 H        -2.804375         1.926440         3.564090
 H        -0.856437         3.602668         3.297014
 H         0.934374         2.447193         1.332592
 H         0.917275         1.303425         2.813121
