19
Iteration:   245
 O        -2.467416         4.033884         1.537087
 C        -1.950633         2.783106         1.752036
 C        -1.471702         1.912373         0.454459
 C        -0.482286         0.900086         1.217707
 O         0.263026        -0.008051         0.343454
 C        -1.649006         0.356701         2.231892
 C        -2.244287         1.682132         2.808447
 C        -0.970266         2.641316         2.786578
 C         0.290756         1.944159         2.191970
 H        -3.243576         4.240065         0.926637
 H        -2.355226         1.399986         0.316252
 H        -1.157393         2.544524        -0.388457
 H         0.923471        -0.457515         0.993204
 H        -2.385494        -0.276457         1.833543
 H        -1.078392        -0.173156         3.037061
 H        -2.819709         1.660374         3.748426
 H        -0.986605         3.358959         3.604778
 H         0.907534         2.593610         1.628622
 H         0.880232         1.464795         2.995917
