19
Iteration:  4105charge 0 multiplicity 1
 O        -2.826730         3.698016         1.402762
 C        -1.821210         2.782806         1.634992
 C        -1.542351         1.930209         0.500176
 C        -0.574462         0.937045         1.268058
 O         0.002198        -0.067879         0.496782
 C        -1.639305         0.531227         2.414944
 C        -1.903444         1.925968         2.885705
 C        -0.588047         2.778614         2.667354
 C         0.347474         1.839250         2.015995
 H        -3.450442         3.695258         2.122047
 H        -2.363015         1.360764         0.084872
 H        -1.055575         2.553281        -0.277104
 H         0.914992        -0.324036         0.879724
 H        -2.499612         0.079899         1.908154
 H        -1.181027        -0.225501         3.127447
 H        -2.587982         2.092505         3.650463
 H        -0.269296         3.705242         3.159144
 H         1.137199         2.441716         1.535409
 H         0.873839         1.236548         2.869874
