19
Iteration:  1548charge 0 multiplicity 1
 O        -2.806507         3.759195         1.351628
 C        -1.834071         2.753126         1.682073
 C        -1.404877         1.983353         0.487309
 C        -0.661835         0.878874         1.316346
 O         0.044025         0.138339         0.401994
 C        -1.590559         0.426374         2.358442
 C        -1.964443         1.849081         2.872678
 C        -0.720598         2.773399         2.718904
 C         0.371774         1.704447         2.301285
 H        -2.412026         4.137478         0.563924
 H        -2.272625         1.691315        -0.098589
 H        -0.515660         2.524056        -0.024817
 H        -0.488484        -0.183191        -0.257757
 H        -2.335397        -0.290813         1.996046
 H        -1.098948        -0.093656         3.120020
 H        -2.728709         1.979747         3.653154
 H        -0.512231         3.666668         3.253744
 H         1.216908         1.943312         1.736895
 H         0.673480         1.243936         3.265290
