19
Iteration:  1132charge 0 multiplicity 1
 O        -2.837954         3.921878         1.469499
 C        -1.890383         2.793038         1.650768
 C        -1.263461         2.002796         0.480405
 C        -0.512688         0.947173         1.281665
 O        -0.031601        -0.136726         0.461463
 C        -1.646338         0.459704         2.299944
 C        -2.015170         1.739275         2.871603
 C        -0.763561         2.684847         2.712345
 C         0.419358         1.912759         2.163399
 H        -3.699764         3.587831         1.205592
 H        -1.951725         1.484753        -0.180050
 H        -0.646739         2.706814        -0.159155
 H         0.890360        -0.127001         0.410039
 H        -2.478418        -0.066910         1.724985
 H        -1.105571        -0.286526         2.865717
 H        -2.772758         1.933646         3.695104
 H        -0.539554         3.472582         3.454328
 H         1.246111         2.392020         1.602769
 H         0.706702         1.268572         3.073269
