19
Iteration:    60
 O        -2.794592         3.839552         1.513978
 C        -1.854016         2.776270         1.737784
 C        -1.381174         2.019608         0.489230
 C        -0.572690         0.920567         1.280517
 O         0.159607        -0.015374         0.502719
 C        -1.635922         0.370345         2.278467
 C        -2.037959         1.793934         2.768891
 C        -0.731247         2.723954         2.761979
 C         0.372435         1.913535         2.089931
 H        -3.678916         3.419442         1.300929
 H        -2.207450         1.611597        -0.142911
 H        -0.675243         2.581080        -0.199584
 H        -0.503781        -0.560650        -0.010804
 H        -2.491888        -0.105474         1.780111
 H        -1.120899        -0.260224         3.048854
 H        -2.749733         1.811358         3.597033
 H        -0.640082         3.605298         3.427473
 H         0.934896         2.499816         1.333927
 H         1.064157         1.398818         2.832131
