19
Iteration:  2078
 O        -2.650843         3.911004         1.393585
 C        -1.915310         2.773746         1.629427
 C        -1.512638         1.879669         0.477577
 C        -0.525342         0.945040         1.279492
 O         0.102185        -0.015104         0.459033
 C        -1.444980         0.403591         2.394826
 C        -2.051020         1.791664         2.846999
 C        -0.833318         2.752168         2.860535
 C         0.312628         1.895181         2.117411
 H        -3.492949         3.638213         1.043711
 H        -2.263774         1.302670         0.111372
 H        -1.019799         2.349043        -0.292238
 H        -0.454740        -0.110394        -0.368081
 H        -2.220325        -0.285492         2.092801
 H        -0.869465        -0.051523         3.243528
 H        -2.962570         1.828731         3.465693
 H        -0.618110         3.540495         3.612484
 H         1.138096         2.398697         1.585578
 H         0.866391         1.171568         2.699919
