19
Iteration:  3617
 O        -2.699932         3.929530         1.562712
 C        -1.932711         2.768053         1.603238
 C        -1.366304         1.892256         0.481413
 C        -0.644434         0.867661         1.308568
 O         0.125489        -0.091096         0.531042
 C        -1.609002         0.388979         2.401631
 C        -1.903147         1.791755         2.877630
 C        -0.806919         2.794305         2.618946
 C         0.242932         1.862497         2.052858
 H        -3.221236         4.081159         0.733179
 H        -2.055077         1.396752        -0.242536
 H        -0.862927         2.459267        -0.228039
 H         0.717068         0.487802        -0.074169
 H        -2.492987        -0.205314         2.076621
 H        -1.023425        -0.222411         3.063141
 H        -2.695393         1.913309         3.638605
 H        -0.912727         3.685934         3.296618
 H         0.697544         2.500730         1.337784
 H         0.952344         1.497248         2.887771
