19
Iteration:   405charge 0 multiplicity 1
 O        -2.563051         3.893188         1.453655
 C        -1.902025         2.742112         1.700309
 C        -1.310528         2.003039         0.503028
 C        -0.585228         1.018259         1.356211
 O         0.087221         0.121165         0.454015
 C        -1.658829         0.326699         2.208050
 C        -2.134755         1.661382         2.738050
 C        -0.839812         2.595852         2.798042
 C         0.239072         1.838909         2.269781
 H        -2.883801         3.952354         0.509449
 H        -2.176220         1.505521         0.051549
 H        -0.707470         2.557117        -0.178285
 H         0.887157         0.548246         0.052828
 H        -2.335057        -0.290903         1.605714
 H        -1.251787        -0.170183         3.108888
 H        -3.021053         1.845596         3.388562
 H        -0.596690         3.330638         3.587362
 H         0.906155         2.591769         1.744039
 H         0.772406         1.067903         2.841610
