19
Iteration:  1733charge 0 multiplicity 1
 O        -2.742792         3.807584         1.713106
 C        -1.840342         2.792444         1.560462
 C        -1.417964         1.946309         0.358015
 C        -0.525934         0.969428         1.283964
 O         0.173959        -0.131909         0.660402
 C        -1.660723         0.479393         2.233236
 C        -2.071562         1.883643         2.738799
 C        -0.840443         2.675148         2.679633
 C         0.286041         1.820672         2.118809
 H        -2.360448         4.592084         1.293010
 H        -2.349753         1.582935        -0.064736
 H        -0.768160         2.412624        -0.427991
 H         0.518195         0.162711        -0.149155
 H        -2.405602        -0.246562         1.721363
 H        -1.211579        -0.115124         3.047161
 H        -2.809901         2.159207         3.500703
 H        -0.983171         3.649969         3.235601
 H         1.019806         2.408711         1.516845
 H         0.976549         1.169992         2.800727
