19
Iteration:   493charge 0 multiplicity 1
 O        -2.669914         3.976020         1.463405
 C        -1.915822         2.776102         1.717523
 C        -1.284877         2.062318         0.545562
 C        -0.549696         0.906235         1.247676
 O         0.234855        -0.093690         0.503357
 C        -1.673071         0.395832         2.126195
 C        -2.165065         1.690755         2.708496
 C        -0.871017         2.665685         2.761297
 C         0.281686         1.822947         2.273834
 H        -3.379113         4.174405         2.136748
 H        -2.123252         1.810529        -0.070407
 H        -0.586017         2.538385        -0.062995
 H         0.754485         0.492281        -0.127029
 H        -2.454893         0.005028         1.499879
 H        -1.351970        -0.340910         2.902011
 H        -2.967822         1.824333         3.431141
 H        -0.851579         3.243699         3.688987
 H         0.923611         2.504480         1.672375
 H         0.813285         1.189206         3.001492
