19
Iteration:  4958
 O        -2.854807         3.776864         1.568562
 C        -1.840623         2.774170         1.613552
 C        -1.402338         1.853188         0.451358
 C        -0.638326         0.905014         1.311050
 O        -0.047205        -0.001667         0.425364
 C        -1.554731         0.461327         2.460011
 C        -1.884767         1.925868         2.827789
 C        -0.724197         2.853853         2.645421
 C         0.391347         1.848594         2.085190
 H        -3.272716         3.669308         0.709357
 H        -2.188482         1.278043        -0.120051
 H        -0.562806         2.103822        -0.235291
 H         0.576914        -0.620856         0.913371
 H        -2.397372        -0.028636         2.047666
 H        -1.055483        -0.244299         3.233638
 H        -2.664948         2.132274         3.588227
 H        -0.477569         3.777632         3.170657
 H         1.061855         2.276758         1.319350
 H         0.922721         1.197644         2.849795
