19
Iteration:   869charge 0 multiplicity 1
 O        -2.823509         3.849057         1.609052
 C        -1.915939         2.787895         1.640311
 C        -1.253365         2.093250         0.345932
 C        -0.527178         1.013228         1.276435
 O         0.095131        -0.111774         0.570425
 C        -1.660686         0.420110         2.188979
 C        -2.054848         1.752645         2.742495
 C        -0.848267         2.639786         2.723671
 C         0.309112         1.778181         2.255197
 H        -2.470397         4.527678         1.029040
 H        -1.871421         1.678184        -0.469350
 H        -0.445661         2.696370        -0.173088
 H         0.980764         0.231836         0.387327
 H        -2.455275         0.118864         1.493611
 H        -1.446694        -0.338504         2.929364
 H        -2.694708         1.918677         3.656327
 H        -0.606472         3.298434         3.573276
 H         0.929432         2.411009         1.685831
 H         0.811831         1.232506         3.056701
