19
Iteration:  3894
 O        -2.774813         3.829438         1.453322
 C        -1.840711         2.782066         1.600307
 C        -1.557038         1.814811         0.610422
 C        -0.554007         0.850895         1.333323
 O         0.096590         0.056095         0.334239
 C        -1.596996         0.372157         2.413285
 C        -2.003519         1.841183         2.750492
 C        -0.717056         2.799906         2.684786
 C         0.310565         1.933654         2.188218
 H        -2.307542         4.654420         1.531198
 H        -2.435072         1.301668         0.270121
 H        -1.173906         2.104925        -0.378756
 H         0.617665        -0.629479         0.816687
 H        -2.259650        -0.252499         1.832386
 H        -1.244675        -0.170951         3.219914
 H        -2.735575         2.039651         3.465234
 H        -0.469568         3.696845         3.252088
 H         1.066127         2.369183         1.589530
 H         0.967944         1.385529         2.932131
