19
Iteration:  4410charge 0 multiplicity 1
 O        -2.832212         3.756192         1.472996
 C        -1.925948         2.757359         1.655578
 C        -1.580715         1.802810         0.490868
 C        -0.567048         0.917317         1.299454
 O         0.012144        -0.095115         0.457739
 C        -1.586999         0.544533         2.461881
 C        -1.798693         1.945285         2.903164
 C        -0.680667         2.886044         2.522675
 C         0.407260         1.848888         1.989928
 H        -3.235019         4.009452         2.350557
 H        -2.323634         1.079100         0.125093
 H        -1.141272         2.331981        -0.388451
 H         0.683637        -0.489301         0.938724
 H        -2.567697         0.247112         2.128040
 H        -1.157146        -0.241959         3.167097
 H        -2.434030         2.016085         3.769520
 H        -0.361716         3.759476         3.090631
 H         1.138381         2.322134         1.318251
 H         0.983340         1.363141         2.824251
