19
Iteration:  2005charge 0 multiplicity 1
 O        -2.753955         3.868223         1.673196
 C        -1.884333         2.743476         1.629087
 C        -1.452412         1.946580         0.342731
 C        -0.634181         1.010912         1.225419
 O         0.218408        -0.110891         0.732668
 C        -1.594930         0.478258         2.311993
 C        -1.970440         1.829257         2.708973
 C        -0.740584         2.760838         2.600932
 C         0.306533         1.866696         2.063637
 H        -3.576223         3.339139         1.789771
 H        -2.503151         1.440707         0.030643
 H        -0.884801         2.614889        -0.432979
 H        -0.062000        -0.404204        -0.224522
 H        -2.260396        -0.097668         1.650340
 H        -1.097059        -0.129692         3.089185
 H        -2.813140         2.049771         3.357235
 H        -0.785839         3.358354         3.516051
 H         1.136048         2.336600         1.476243
 H         0.745605         1.150512         2.782147
