19
Iteration:  4089charge 0 multiplicity 1
 O        -2.905384         3.771991         1.436974
 C        -1.896950         2.804482         1.706736
 C        -1.476628         1.943910         0.470065
 C        -0.659835         0.887058         1.227714
 O         0.106702        -0.098357         0.501072
 C        -1.612571         0.496173         2.435677
 C        -1.965971         1.919878         2.856558
 C        -0.678620         2.803092         2.574957
 C         0.485415         1.763240         2.038717
 H        -3.023521         4.303282         2.238611
 H        -2.473147         1.658149         0.033499
 H        -0.847714         2.374946        -0.351686
 H         0.943954        -0.066830         0.940163
 H        -2.490739        -0.158962         2.106335
 H        -0.993991         0.064242         3.293160
 H        -2.588652         2.310140         3.752472
 H        -0.424078         3.506640         3.372835
 H         1.104436         2.065414         1.187992
 H         0.900952         1.146610         2.790665
