19
Iteration:  4851
 O        -2.785087         3.873633         1.417632
 C        -1.921220         2.726248         1.621084
 C        -1.600663         1.720607         0.541593
 C        -0.554396         0.907477         1.305326
 O         0.031113         0.057064         0.386206
 C        -1.483350         0.418876         2.548568
 C        -1.941774         1.865664         2.888623
 C        -0.797216         2.788009         2.580043
 C         0.392035         1.910817         2.019027
 H        -2.339326         4.688962         1.730561
 H        -2.374968         1.027956         0.141312
 H        -1.136667         2.280338        -0.308215
 H         0.705803        -0.608516         0.751053
 H        -2.213937        -0.275689         2.101290
 H        -1.025531        -0.122729         3.405536
 H        -2.473290         2.153134         3.872815
 H        -0.636700         3.697662         3.199548
 H         1.207278         2.317240         1.464505
 H         0.893751         1.302959         2.826150
