19
Iteration:   968charge 0 multiplicity 1
 O        -2.720762         3.993585         1.623821
 C        -1.878489         2.831244         1.642556
 C        -1.392575         1.943036         0.316777
 C        -0.596272         0.955877         1.196605
 O         0.176472        -0.062199         0.736783
 C        -1.663733         0.420868         2.164093
 C        -2.118753         1.770929         2.696127
 C        -0.726542         2.632063         2.826694
 C         0.342239         1.857684         2.173837
 H        -3.661382         3.644610         1.697752
 H        -2.018593         1.256234        -0.343546
 H        -0.691305         2.510271        -0.434025
 H         0.269860        -0.112812        -0.292184
 H        -2.419926        -0.107407         1.529251
 H        -1.087206        -0.235450         2.768532
 H        -2.962523         1.867036         3.346445
 H        -0.586636         3.351497         3.623682
 H         1.094309         2.391022         1.606016
 H         0.861202         1.003552         2.654866
