19
Iteration:  4389
 O        -2.935979         3.769218         1.356230
 C        -1.808931         2.814654         1.708527
 C        -1.475883         1.918600         0.531109
 C        -0.654407         0.863554         1.281052
 O        -0.134099        -0.133305         0.422297
 C        -1.429075         0.462095         2.512062
 C        -1.894389         1.935852         2.891908
 C        -0.626253         2.820964         2.596529
 C         0.449553         1.922168         2.000099
 H        -3.714603         3.539646         1.875189
 H        -2.446088         1.606485         0.135683
 H        -0.909287         2.439685        -0.253692
 H         0.540368        -0.736096         0.919102
 H        -2.119726        -0.295411         2.173502
 H        -0.772814        -0.000349         3.332371
 H        -2.426597         2.303715         3.752484
 H        -0.234790         3.594314         3.248657
 H         1.114654         2.496484         1.399517
 H         1.025731         1.423358         2.800703
