19
Iteration:   983charge 0 multiplicity 1
 O        -2.727233         3.882293         1.698401
 C        -1.876510         2.760486         1.603672
 C        -1.250731         2.010161         0.338210
 C        -0.543760         1.017508         1.251910
 O         0.127955        -0.107296         0.695093
 C        -1.672727         0.474203         2.161501
 C        -2.011455         1.786907         2.774095
 C        -0.861545         2.676282         2.674323
 C         0.307450         1.799452         2.143755
 H        -3.521777         3.697269         1.220183
 H        -2.098372         1.617291        -0.230743
 H        -0.630404         2.633796        -0.235299
 H         0.069802        -0.020054        -0.239886
 H        -2.490645         0.002326         1.590087
 H        -1.408798        -0.346629         2.859392
 H        -2.755437         1.995223         3.556244
 H        -0.732223         3.524228         3.354589
 H         1.101776         2.344625         1.589992
 H         0.649059         1.252810         2.995028
