19
Iteration:   656
 O        -2.608838         3.822777         1.410075
 C        -1.915926         2.733749         1.714055
 C        -1.280391         2.098520         0.454596
 C        -0.572878         0.990724         1.253503
 O         0.132259         0.016549         0.301145
 C        -1.617030         0.374308         2.173920
 C        -2.180646         1.746466         2.844744
 C        -0.938888         2.621125         2.908352
 C         0.232706         1.796832         2.400204
 H        -2.282732         4.609821         1.020263
 H        -2.075929         1.732070        -0.279951
 H        -0.466900         2.721567        -0.081604
 H         0.972236         0.424031         0.283040
 H        -2.463683        -0.208968         1.867275
 H        -1.018358        -0.196400         2.946523
 H        -3.037047         1.687440         3.563357
 H        -0.649386         3.502157         3.500694
 H         1.046221         2.442454         2.019034
 H         0.545683         0.911203         2.895314
