19
Iteration:  3308
 O        -2.750269         3.880338         1.490592
 C        -1.850912         2.851075         1.638124
 C        -1.362035         1.883003         0.519548
 C        -0.570554         0.835972         1.365734
 O         0.083092         0.006399         0.451712
 C        -1.645205         0.419273         2.370567
 C        -2.107148         1.812042         2.733581
 C        -0.791606         2.724692         2.683578
 C         0.413948         1.842630         2.090406
 H        -3.597448         3.613694         1.883122
 H        -2.115453         1.312632        -0.045237
 H        -0.660251         2.357800        -0.108648
 H         0.951100         0.569330         0.222237
 H        -2.435025        -0.026691         1.659777
 H        -1.269330        -0.083196         3.332292
 H        -2.776252         2.008905         3.607412
 H        -0.836802         3.414927         3.557527
 H         0.951527         2.321719         1.333516
 H         1.099142         1.300717         2.768742
