19
Iteration:  4043
 O        -2.647288         3.809918         1.532413
 C        -1.900939         2.673457         1.677905
 C        -1.531823         1.865635         0.457363
 C        -0.510381         0.988353         1.322722
 O        -0.051955        -0.109915         0.499418
 C        -1.505938         0.489663         2.358882
 C        -2.056986         1.812653         2.815691
 C        -0.792148         2.735211         2.674735
 C         0.367350         2.063118         2.028715
 H        -2.308939         4.174128         0.720428
 H        -2.148098         1.021486         0.099464
 H        -1.285217         2.542658        -0.343800
 H         0.795686        -0.586149         0.865952
 H        -2.302215        -0.174164         2.041889
 H        -0.945671         0.121727         3.220359
 H        -2.722949         1.727654         3.651633
 H        -0.828719         3.557769         3.390759
 H         0.765449         2.693114         1.218745
 H         1.007642         1.584622         2.704996
