19
Iteration:   746
 O        -2.705885         3.922279         1.487194
 C        -1.923046         2.822263         1.698177
 C        -1.246806         2.115099         0.556433
 C        -0.507678         0.997066         1.257866
 O         0.142753        -0.058752         0.580910
 C        -1.675701         0.399512         2.147482
 C        -2.128964         1.714219         2.641283
 C        -0.816883         2.651118         2.749200
 C         0.317220         1.772358         2.234859
 H        -3.513552         3.842250         1.984281
 H        -2.010185         1.536325        -0.010838
 H        -0.581092         2.715631        -0.144110
 H         0.399504         0.125150        -0.372295
 H        -2.352918        -0.156245         1.551918
 H        -1.358156        -0.399371         2.849153
 H        -3.012620         1.787945         3.250056
 H        -0.854860         3.152246         3.705529
 H         1.140956         2.307124         1.810596
 H         0.617003         1.020474         2.974668
