19
Iteration:  3406
 O        -2.794354         3.780028         1.488437
 C        -1.894593         2.706713         1.616203
 C        -1.422600         1.945167         0.470544
 C        -0.562347         0.970539         1.303778
 O         0.075301         0.043302         0.441703
 C        -1.616236         0.409509         2.399542
 C        -1.984714         1.845726         2.892905
 C        -0.802244         2.753608         2.610367
 C         0.340676         1.779627         2.181102
 H        -2.279700         4.450611         1.015495
 H        -2.255622         1.491225        -0.126321
 H        -0.729929         2.536293        -0.234178
 H         1.069561         0.281511         0.280750
 H        -2.577123        -0.102449         2.066133
 H        -1.026492        -0.278022         3.123565
 H        -2.871645         2.032914         3.513654
 H        -0.695472         3.596636         3.325833
 H         1.146664         2.189419         1.582277
 H         0.694562         1.095301         2.987887
