19
Iteration:  4654charge 0 multiplicity 1
 O        -2.965769         3.736678         1.475537
 C        -1.918006         2.815054         1.646791
 C        -1.380559         1.939378         0.449259
 C        -0.519656         0.872249         1.344985
 O        -0.083116        -0.189422         0.472234
 C        -1.519641         0.460390         2.429046
 C        -1.864945         1.923647         2.903882
 C        -0.687126         2.839638         2.617926
 C         0.365345         1.937146         1.930619
 H        -2.800977         4.437238         2.140872
 H        -2.183072         1.351366        -0.002713
 H        -0.858561         2.586845        -0.242903
 H         0.741082        -0.656726         0.905959
 H        -2.380316        -0.133639         2.149201
 H        -0.980314        -0.056938         3.230128
 H        -2.498329         2.017795         3.763754
 H        -0.303941         3.597866         3.308805
 H         0.846975         2.447649         1.110199
 H         1.153199         1.596465         2.702356
