19
Iteration:  4125charge 0 multiplicity 1
 O        -2.785019         3.849664         1.448153
 C        -1.873969         2.749003         1.667866
 C        -1.404366         1.821948         0.471482
 C        -0.597894         0.922130         1.300448
 O        -0.106823        -0.106272         0.435796
 C        -1.521031         0.468228         2.365001
 C        -1.878611         1.842719         2.988031
 C        -0.706126         2.847039         2.611451
 C         0.399365         1.984136         2.063239
 H        -3.682221         3.477772         1.344532
 H        -2.262574         1.280749         0.040560
 H        -0.793199         2.375550        -0.315125
 H         0.494324        -0.587335         0.953858
 H        -2.506160         0.040866         1.997333
 H        -1.164595        -0.328134         3.151362
 H        -2.511973         2.058586         3.788485
 H        -0.811929         3.621956         3.357699
 H         1.036837         2.470667         1.307229
 H         1.136067         1.478709         2.724875
