19
Iteration:  2613
 O        -2.667678         4.036519         1.590534
 C        -1.963619         2.786062         1.646860
 C        -1.439974         1.807364         0.430248
 C        -0.566799         0.895562         1.298790
 O         0.177451        -0.027161         0.546837
 C        -1.620733         0.382948         2.174692
 C        -1.984067         1.777802         2.874065
 C        -0.819979         2.761137         2.589446
 C         0.340227         1.907127         2.129332
 H        -3.582066         3.801423         1.286467
 H        -2.103997         1.085273        -0.001771
 H        -0.902373         2.379965        -0.246257
 H        -0.155074        -0.807696         0.892336
 H        -2.574169        -0.092695         1.846624
 H        -1.211305        -0.341322         2.856240
 H        -2.489333         1.955785         3.789872
 H        -0.757654         3.601462         3.277065
 H         1.055982         2.330783         1.482862
 H         0.907703         1.534431         3.006534
