19
Iteration:   605
 O        -2.771952         3.865036         1.680804
 C        -1.815674         2.791243         1.703062
 C        -1.318750         2.158068         0.367044
 C        -0.491921         0.916880         1.220589
 O         0.204138        -0.145812         0.629465
 C        -1.725273         0.476833         2.026082
 C        -2.075150         1.734748         2.658465
 C        -0.870181         2.583739         2.821821
 C         0.245457         1.826559         2.256497
 H        -2.754297         4.570061         1.032088
 H        -2.078693         1.777306        -0.226867
 H        -0.720347         2.808889        -0.223637
 H         1.078033         0.179123         0.244918
 H        -2.532723         0.003128         1.457659
 H        -1.463314        -0.342073         2.749299
 H        -3.046701         1.998991         3.169033
 H        -0.939404         3.366628         3.589421
 H         1.007511         2.399885         1.679326
 H         0.828099         1.264310         3.045175
