19
Iteration:  3912
 O        -2.725894         3.823659         1.409934
 C        -1.911071         2.685155         1.673928
 C        -1.475685         1.842484         0.443834
 C        -0.571089         0.950350         1.284946
 O         0.113837         0.058782         0.447891
 C        -1.605484         0.449752         2.386386
 C        -1.988452         1.808496         2.940733
 C        -0.779592         2.777278         2.641473
 C         0.336573         1.875155         2.062140
 H        -2.423421         4.501327         2.010945
 H        -2.404019         1.327813        -0.003718
 H        -0.881156         2.490420        -0.209207
 H         0.187184        -0.786900         0.923124
 H        -2.505291        -0.121750         2.017616
 H        -1.066758        -0.319403         3.072111
 H        -2.702617         1.990920         3.755809
 H        -0.773111         3.657560         3.321336
 H         1.093668         2.372312         1.389272
 H         0.880421         1.507621         2.894258
