19
Iteration:   585charge 0 multiplicity 1
 O        -2.763692         3.867194         1.666094
 C        -1.892360         2.750587         1.675420
 C        -1.263342         2.170699         0.367144
 C        -0.532369         1.048271         1.118437
 O         0.203806        -0.148893         0.694731
 C        -1.702831         0.394686         2.099318
 C        -2.161355         1.724009         2.692772
 C        -0.885180         2.657934         2.762507
 C         0.264118         1.776070         2.233840
 H        -2.157041         4.603129         1.746262
 H        -2.006881         1.821436        -0.346658
 H        -0.494446         2.728883        -0.174449
 H         0.826225         0.167849         0.077109
 H        -2.311887        -0.061668         1.288849
 H        -1.229089        -0.451858         2.580534
 H        -2.873908         1.761628         3.540003
 H        -0.763532         3.524140         3.436098
 H         0.996178         2.504184         1.844057
 H         0.718406         1.035818         2.962857
