19
Iteration:  4006
 O        -2.759169         3.925132         1.430521
 C        -1.946492         2.791847         1.690155
 C        -1.478408         1.901308         0.493995
 C        -0.615549         0.845984         1.258949
 O         0.150988         0.015421         0.434791
 C        -1.559203         0.400495         2.449766
 C        -1.889956         1.768739         2.898731
 C        -0.743599         2.825056         2.617203
 C         0.248515         1.856933         2.088402
 H        -3.417020         3.617639         0.781019
 H        -2.344974         1.486373         0.002036
 H        -0.919433         2.588637        -0.153358
 H         0.336790        -0.904557         0.860203
 H        -2.407099        -0.225319         2.226111
 H        -1.146829        -0.098108         3.279457
 H        -2.428082         2.063090         3.813233
 H        -0.415005         3.645658         3.259844
 H         1.014963         2.049373         1.341493
 H         0.949602         1.454525         2.882893
