19
Iteration:  4378
 O        -2.858980         3.749542         1.353408
 C        -1.905180         2.850186         1.647520
 C        -1.477708         1.984585         0.524860
 C        -0.549430         0.923851         1.305838
 O        -0.215926        -0.128953         0.426958
 C        -1.370579         0.515676         2.565703
 C        -1.847521         1.865641         2.884690
 C        -0.673757         2.786715         2.660664
 C         0.409768         1.878181         1.956510
 H        -3.654497         3.261165         1.571779
 H        -2.241542         1.485690        -0.069422
 H        -0.780540         2.479308        -0.169521
 H         0.360826        -0.775389         1.001092
 H        -2.260070        -0.078853         2.491805
 H        -0.655883         0.060296         3.341141
 H        -2.570704         1.864385         3.691308
 H        -0.428373         3.611742         3.330870
 H         0.917824         2.458437         1.226941
 H         1.148823         1.450534         2.646386
