19
Iteration:  1884
 O        -2.711574         3.892434         1.640762
 C        -1.870109         2.738360         1.654593
 C        -1.396757         1.959812         0.409530
 C        -0.616507         0.882400         1.311661
 O         0.120140        -0.111481         0.675200
 C        -1.673586         0.426810         2.256797
 C        -2.005239         1.765452         2.762044
 C        -0.768143         2.707597         2.649065
 C         0.345296         1.982135         2.069828
 H        -3.376189         3.959908         0.970988
 H        -2.238131         1.376788        -0.159661
 H        -0.862783         2.473053        -0.408273
 H         0.511846         0.152700        -0.140136
 H        -2.436493        -0.139944         1.735859
 H        -1.153088        -0.058492         3.114843
 H        -2.734330         2.009460         3.527793
 H        -0.597369         3.585526         3.259439
 H         0.748868         2.545538         1.198843
 H         1.098970         1.445766         2.611905
