19
Iteration:  1558
 O        -2.747786         3.790366         1.433656
 C        -1.869888         2.743765         1.701065
 C        -1.385175         1.911096         0.540483
 C        -0.566260         0.980945         1.308691
 O         0.050425         0.037700         0.444101
 C        -1.572905         0.437614         2.309676
 C        -2.028189         1.822717         2.844668
 C        -0.769961         2.812327         2.662877
 C         0.338272         1.749011         2.252029
 H        -2.373184         4.220311         0.659886
 H        -2.146085         1.405585        -0.096750
 H        -0.816891         2.539879        -0.219374
 H        -0.526680        -0.179782        -0.282512
 H        -2.464380        -0.025731         1.869703
 H        -0.977173        -0.248782         2.827120
 H        -2.652368         2.202516         3.656159
 H        -0.784669         3.601427         3.364141
 H         1.234474         2.091414         1.755524
 H         0.589399         1.056312         3.104287
