19
Iteration:  4011
 O        -2.766088         3.943841         1.428146
 C        -1.897926         2.803015         1.694611
 C        -1.493748         1.898615         0.486879
 C        -0.648538         0.866262         1.294730
 O         0.142522        -0.010225         0.438034
 C        -1.539463         0.366570         2.422554
 C        -1.922535         1.797072         2.924633
 C        -0.770311         2.808724         2.645224
 C         0.306143         1.883851         2.068113
 H        -3.285647         3.695340         0.616278
 H        -2.316428         1.329103        -0.056575
 H        -0.974709         2.502333        -0.281311
 H         0.398258        -0.786505         0.835812
 H        -2.457053        -0.272012         2.257405
 H        -0.936201        -0.148309         3.292508
 H        -2.558910         1.923371         3.789376
 H        -0.552043         3.597238         3.373337
 H         0.992187         2.176986         1.217282
 H         0.939467         1.367747         2.763837
