19
Iteration:  4501charge 0 multiplicity 1
 O        -2.860677         3.684022         1.495426
 C        -1.868240         2.783901         1.627432
 C        -1.471546         1.865944         0.520160
 C        -0.616193         0.863218         1.351491
 O        -0.055231        -0.016982         0.361881
 C        -1.540036         0.437890         2.484968
 C        -1.829780         1.956812         2.982851
 C        -0.658031         2.885003         2.545944
 C         0.376433         1.882959         2.052390
 H        -3.184872         3.950887         0.643966
 H        -2.246543         1.325208        -0.029222
 H        -0.942346         2.447588        -0.205397
 H         0.391198        -0.761112         0.815451
 H        -2.439921        -0.027669         2.027076
 H        -1.045235        -0.250578         3.211588
 H        -2.489401         2.400390         3.791948
 H        -0.457166         3.842851         3.044146
 H         1.119014         2.316675         1.440489
 H         0.906953         1.374210         2.869229
