19
Iteration:  2824charge 0 multiplicity 1
 O        -2.715474         3.836270         1.435051
 C        -1.908508         2.780275         1.575828
 C        -1.379239         1.948387         0.412550
 C        -0.557185         0.977198         1.248491
 O         0.058896        -0.000013         0.441370
 C        -1.636027         0.421401         2.336005
 C        -1.957880         1.815188         2.930269
 C        -0.798852         2.705385         2.758547
 C         0.343713         1.831792         2.186143
 H        -3.650104         3.669874         1.315402
 H        -2.225168         1.428965        -0.170085
 H        -0.710044         2.684679        -0.149656
 H         0.507345        -0.598861         1.055788
 H        -2.520519        -0.088300         1.834181
 H        -1.168901        -0.324920         3.040307
 H        -2.616074         2.195375         3.709400
 H        -0.541076         3.565090         3.383373
 H         1.070605         2.382294         1.622035
 H         0.764109         1.354948         3.064125
