19
Iteration:  3005charge 0 multiplicity 1
 O        -2.717380         3.871372         1.576773
 C        -1.822177         2.818984         1.609312
 C        -1.365660         1.913381         0.514302
 C        -0.545666         0.924785         1.334795
 O         0.146948        -0.009436         0.529928
 C        -1.735400         0.368771         2.217206
 C        -2.050799         1.842609         2.707230
 C        -0.759434         2.737406         2.741311
 C         0.320279         1.912191         2.110039
 H        -3.696696         3.671151         1.567626
 H        -2.334818         1.527770        -0.014979
 H        -0.746709         2.210918        -0.331310
 H         0.496529        -0.754187         1.006190
 H        -2.569224        -0.069226         1.622343
 H        -1.359561        -0.491146         2.977309
 H        -2.910863         2.002188         3.347750
 H        -0.520387         3.500043         3.497177
 H         0.866231         2.507435         1.240499
 H         1.091385         1.297825         2.682659
