19
Iteration:  1589
 O        -2.781385         3.936093         1.620105
 C        -1.868773         2.828555         1.641954
 C        -1.423239         1.959270         0.418928
 C        -0.599488         0.870176         1.244828
 O         0.244465        -0.152724         0.642556
 C        -1.635143         0.417636         2.251262
 C        -2.119773         1.809641         2.750476
 C        -0.785096         2.674389         2.761623
 C         0.359774         1.907309         2.047876
 H        -2.236291         4.716364         1.332373
 H        -2.281046         1.502908        -0.163797
 H        -0.700245         2.488335        -0.197521
 H        -0.405071        -0.646665         0.034706
 H        -2.517070        -0.104209         1.811322
 H        -1.063318        -0.269776         2.929039
 H        -2.844901         2.116420         3.514972
 H        -0.885521         3.422443         3.493554
 H         0.776408         2.537297         1.197247
 H         1.286076         1.496300         2.564910
