19
Iteration:  3541charge 0 multiplicity 1
 O        -2.781712         3.705741         1.433018
 C        -1.950044         2.693184         1.698231
 C        -1.308113         1.985232         0.529734
 C        -0.575621         0.911494         1.259227
 O         0.028571         0.017347         0.434834
 C        -1.605170         0.459820         2.359561
 C        -2.019326         1.870933         2.888219
 C        -0.764458         2.685311         2.678636
 C         0.344335         1.921376         2.042198
 H        -2.317711         4.540160         1.557760
 H        -2.069164         1.451478        -0.146443
 H        -0.644174         2.644219         0.015723
 H         0.364253        -0.740739         0.968583
 H        -2.500691        -0.202245         2.010104
 H        -0.949327         0.043840         3.160591
 H        -2.740605         2.158414         3.707507
 H        -0.827743         3.569276         3.342528
 H         0.882493         2.480563         1.353573
 H         1.059983         1.551874         2.775969
