19
Iteration:  3764charge 0 multiplicity 1
 O        -2.742565         3.896336         1.354438
 C        -2.026728         2.747179         1.694430
 C        -1.419092         1.932011         0.474705
 C        -0.541765         0.873485         1.320573
 O         0.062909        -0.044866         0.432805
 C        -1.540479         0.425973         2.450766
 C        -2.009260         1.761299         2.940915
 C        -0.841054         2.695540         2.661231
 C         0.353364         1.910246         2.045096
 H        -2.196939         4.634899         1.725230
 H        -2.046914         1.240120        -0.071794
 H        -0.794440         2.599687        -0.206133
 H         0.956662         0.099530         0.528038
 H        -2.430002        -0.063145         1.973624
 H        -1.176697        -0.175528         3.403875
 H        -2.659016         1.850865         3.852297
 H        -0.706697         3.644064         3.244085
 H         0.853945         2.396773         1.217338
 H         1.038074         1.395895         2.786982
