19
Iteration:  3880
 O        -2.819861         3.871859         1.478704
 C        -1.852186         2.829244         1.640599
 C        -1.497134         1.771193         0.464400
 C        -0.542938         0.917127         1.320686
 O         0.061452         0.029375         0.372113
 C        -1.526811         0.426180         2.404206
 C        -2.007365         1.874490         2.831795
 C        -0.812333         2.713740         2.704372
 C         0.404500         1.820295         2.141516
 H        -2.377832         4.623099         0.976155
 H        -2.429654         1.183630         0.233394
 H        -1.028285         2.188949        -0.438791
 H         0.849826        -0.404056         0.718841
 H        -2.421858        -0.106554         2.075580
 H        -1.068052        -0.004735         3.265299
 H        -2.816040         2.125264         3.553281
 H        -0.744829         3.423400         3.556912
 H         1.045363         2.411127         1.524980
 H         0.806431         1.315246         2.933731
