19
Iteration:   817
 O        -2.751773         4.089923         1.580273
 C        -1.921950         2.835114         1.651938
 C        -1.354831         2.025866         0.421900
 C        -0.495096         0.970249         1.260938
 O         0.186315        -0.119685         0.570261
 C        -1.673735         0.338993         2.171113
 C        -2.103591         1.665429         2.718909
 C        -0.895704         2.575948         2.829559
 C         0.379818         1.827060         2.186200
 H        -2.902158         4.313916         0.656029
 H        -2.140033         1.488222        -0.098879
 H        -0.855892         2.661167        -0.243164
 H         0.986309         0.408273         0.247803
 H        -2.496461        -0.316348         1.724693
 H        -1.225098        -0.322246         2.922223
 H        -3.002726         1.887631         3.354718
 H        -0.757748         3.344651         3.602096
 H         1.188140         2.402565         1.670395
 H         0.708443         1.145988         2.987769
