19
Iteration:   286charge 0 multiplicity 1
 O        -2.704680         3.929366         1.489652
 C        -1.936921         2.769199         1.627234
 C        -1.236089         2.084541         0.520746
 C        -0.564763         0.964066         1.279059
 O         0.065345         0.027253         0.420130
 C        -1.702356         0.348706         2.241585
 C        -2.069845         1.696859         2.837484
 C        -0.840720         2.705618         2.695649
 C         0.343485         1.755068         2.256490
 H        -3.443957         3.585429         1.004144
 H        -1.947294         1.603445        -0.197978
 H        -0.506555         2.773911         0.003850
 H         1.030697         0.134496         0.504190
 H        -2.369529        -0.293085         1.683611
 H        -1.199555        -0.275160         3.011218
 H        -2.700671         1.946862         3.679004
 H        -0.790665         3.305041         3.583146
 H         1.120537         2.262577         1.701277
 H         0.792734         1.168893         3.078741
