19
Iteration:  1880
 O        -2.689841         3.863713         1.657767
 C        -1.859330         2.750809         1.648924
 C        -1.393472         1.922180         0.396999
 C        -0.597173         0.918944         1.246864
 O         0.110977        -0.113791         0.724076
 C        -1.672904         0.430190         2.237949
 C        -2.022291         1.769689         2.740331
 C        -0.771296         2.743885         2.686043
 C         0.338860         1.966778         2.071262
 H        -3.461739         3.804825         1.020106
 H        -2.293811         1.514970        -0.107752
 H        -0.882529         2.475062        -0.376858
 H         0.409552         0.071689        -0.265708
 H        -2.454534        -0.123182         1.751705
 H        -1.216433        -0.145652         3.047852
 H        -2.686112         2.009128         3.603463
 H        -0.635911         3.733890         3.232184
 H         0.716278         2.628404         1.290819
 H         1.178359         1.398170         2.484626
