19
Iteration:  1673charge 0 multiplicity 1
 O        -2.735192         3.773954         1.363732
 C        -1.863998         2.671424         1.703990
 C        -1.285654         2.079926         0.479962
 C        -0.593935         0.970220         1.269710
 O         0.045614         0.072306         0.446214
 C        -1.675220         0.380124         2.416407
 C        -2.027081         1.819345         2.812971
 C        -0.736528         2.679440         2.887357
 C         0.312733         1.804465         2.140792
 H        -2.434108         4.012336         0.487584
 H        -2.051174         1.568089        -0.159757
 H        -0.629591         2.639739        -0.153359
 H        -0.619096        -0.130281        -0.154637
 H        -2.457124        -0.314855         2.170060
 H        -0.979907        -0.008155         3.221813
 H        -2.877033         2.155128         3.429497
 H        -0.657988         3.500037         3.567111
 H         0.963651         2.383392         1.432716
 H         0.886879         1.194874         2.780852
