19
Iteration:  3530
 O        -2.824311         3.750712         1.462112
 C        -1.864344         2.705665         1.638343
 C        -1.408356         1.922708         0.483305
 C        -0.551711         0.971986         1.337865
 O         0.025773         0.067393         0.416283
 C        -1.545189         0.506177         2.400444
 C        -2.033301         1.822360         2.850081
 C        -0.778745         2.672182         2.706427
 C         0.371796         1.870861         2.111420
 H        -2.334182         4.432806         0.969644
 H        -2.218550         1.439515        -0.161317
 H        -0.780849         2.508096        -0.171142
 H         0.184414        -0.880513         0.805368
 H        -2.272924        -0.185376         1.822826
 H        -1.141111        -0.165244         3.205309
 H        -2.753688         2.023805         3.678602
 H        -0.448397         3.601264         3.190985
 H         0.929423         2.545490         1.554478
 H         0.996958         1.329066         2.824880
