19
Iteration:  2227charge 0 multiplicity 1
 O        -2.746171         4.028878         1.504369
 C        -1.921599         2.832957         1.641216
 C        -1.584327         1.834624         0.511964
 C        -0.540964         0.933778         1.309964
 O         0.211415        -0.069976         0.607941
 C        -1.576208         0.314702         2.351513
 C        -1.947342         1.760856         2.792306
 C        -0.750828         2.685118         2.652822
 C         0.388383         1.962303         2.047849
 H        -3.632277         3.816835         1.135028
 H        -2.502206         1.296242         0.112522
 H        -1.121218         2.250592        -0.413536
 H        -0.256235        -0.117005        -0.322207
 H        -2.453736        -0.106087         1.795901
 H        -1.199096        -0.253955         3.176747
 H        -2.735176         1.779339         3.549430
 H        -0.525483         3.486584         3.385882
 H         0.925507         2.694528         1.446203
 H         0.940015         1.325735         2.765151
