19
Iteration:  4367
 O        -2.809894         3.792458         1.419029
 C        -1.907878         2.655301         1.642582
 C        -1.362747         1.911809         0.463051
 C        -0.579105         0.981057         1.269009
 O        -0.248285        -0.121149         0.448842
 C        -1.391748         0.521559         2.544509
 C        -1.845683         1.868692         2.990697
 C        -0.724368         2.803524         2.681107
 C         0.401633         1.972859         1.916917
 H        -3.676881         3.460158         1.071194
 H        -2.138769         1.368756        -0.068493
 H        -0.852312         2.600215        -0.214250
 H         0.162161        -0.859717         0.872238
 H        -2.055849        -0.290514         2.308711
 H        -0.723259         0.178460         3.411981
 H        -2.564998         2.147126         3.764827
 H        -0.665462         3.677347         3.326404
 H         0.921341         2.371138         1.103084
 H         1.110616         1.432090         2.549466
