19
Iteration:   981
 O        -2.728087         3.899695         1.698496
 C        -1.879099         2.765043         1.606984
 C        -1.252880         1.994702         0.321240
 C        -0.551278         1.026150         1.257287
 O         0.126744        -0.094882         0.710592
 C        -1.658597         0.459116         2.154972
 C        -2.021466         1.790574         2.769947
 C        -0.852296         2.660060         2.705741
 C         0.309242         1.799276         2.115129
 H        -3.551660         3.644960         1.245203
 H        -2.095419         1.512581        -0.253080
 H        -0.623647         2.659007        -0.301567
 H         0.065922         0.002365        -0.209681
 H        -2.504006         0.013398         1.580300
 H        -1.394316        -0.317964         2.837103
 H        -2.735318         2.039295         3.511835
 H        -0.749304         3.504657         3.380604
 H         1.132477         2.283428         1.635451
 H         0.636428         1.244304         2.978539
