19
Iteration:  2837charge 0 multiplicity 1
 O        -2.717513         3.834720         1.502699
 C        -1.813340         2.722939         1.673181
 C        -1.317584         1.974461         0.487956
 C        -0.538168         0.938103         1.342604
 O        -0.011983        -0.029783         0.473257
 C        -1.667699         0.463712         2.269194
 C        -2.030160         1.798432         2.813962
 C        -0.794343         2.763574         2.631602
 C         0.370903         1.921066         2.167155
 H        -3.563823         3.314834         1.550045
 H        -2.096808         1.399012        -0.047393
 H        -0.779517         2.431967        -0.277019
 H         0.649446        -0.590389         0.945167
 H        -2.498584         0.003809         1.674953
 H        -1.315056        -0.377997         3.001662
 H        -2.878973         1.862887         3.467260
 H        -0.814063         3.695540         3.228706
 H         1.122773         2.478542         1.483582
 H         1.007887         1.324785         2.838860
