19
Iteration:  2235charge 0 multiplicity 1
 O        -2.714627         3.969489         1.563881
 C        -1.885771         2.806230         1.644299
 C        -1.585399         1.878244         0.438404
 C        -0.528538         0.863639         1.282712
 O         0.190078        -0.105822         0.639704
 C        -1.583812         0.408705         2.317375
 C        -1.937143         1.780354         2.815382
 C        -0.825833         2.693332         2.654149
 C         0.360147         1.987492         2.051352
 H        -3.657825         3.756718         1.306139
 H        -2.398850         1.361248         0.087164
 H        -1.053116         2.448479        -0.373292
 H        -0.238248        -0.292161        -0.289403
 H        -2.283728        -0.239195         1.692607
 H        -1.174920        -0.378427         3.019551
 H        -2.639634         1.997651         3.580222
 H        -0.804739         3.621103         3.217121
 H         1.034486         2.579488         1.260756
 H         1.131727         1.713560         2.920233
