19
Iteration:  2223charge 0 multiplicity 1
 O        -2.740576         4.039747         1.484018
 C        -1.944884         2.814230         1.632860
 C        -1.569784         1.825820         0.526735
 C        -0.555163         0.951832         1.310267
 O         0.212879        -0.047872         0.578897
 C        -1.560531         0.321252         2.349136
 C        -1.986791         1.746016         2.808126
 C        -0.728728         2.719740         2.668397
 C         0.367000         1.923894         2.043102
 H        -3.587060         3.736881         1.077202
 H        -2.417192         1.288540         0.260164
 H        -1.112788         2.223129        -0.406533
 H        -0.160181        -0.107051        -0.250261
 H        -2.478173        -0.117098         1.898976
 H        -1.175929        -0.235020         3.263567
 H        -2.705269         1.822173         3.601486
 H        -0.471768         3.399073         3.464488
 H         1.010033         2.687902         1.414057
 H         0.974483         1.207716         2.722774
