19
Iteration:  4236charge 0 multiplicity 1
 O        -2.838476         3.693007         1.395626
 C        -1.815197         2.805879         1.654123
 C        -1.468698         1.973718         0.493846
 C        -0.635376         0.903312         1.251857
 O        -0.115312        -0.191289         0.581155
 C        -1.422541         0.513927         2.479547
 C        -1.892335         1.899147         2.863805
 C        -0.701860         2.813279         2.619741
 C         0.389868         1.927674         1.981652
 H        -3.304319         3.972612         2.198904
 H        -2.399482         1.692929        -0.007216
 H        -0.764290         2.292515        -0.302615
 H         0.135519         0.156043        -0.359837
 H        -2.226302        -0.228484         2.464082
 H        -0.760674         0.088719         3.331851
 H        -2.641249         1.962776         3.713716
 H        -0.619370         3.713679         3.237261
 H         1.126190         2.365792         1.342082
 H         0.937019         1.305113         2.724071
