19
Iteration:  1731
 O        -2.753405         3.814136         1.711963
 C        -1.831633         2.809150         1.563591
 C        -1.424547         1.942391         0.359757
 C        -0.532525         0.959485         1.289632
 O         0.164822        -0.123227         0.668600
 C        -1.660130         0.469704         2.214614
 C        -2.071659         1.865958         2.742442
 C        -0.824883         2.689572         2.670618
 C         0.307710         1.816021         2.129356
 H        -2.385373         4.572169         1.192050
 H        -2.375642         1.554986        -0.072544
 H        -0.763278         2.334050        -0.389038
 H         0.474474         0.181027        -0.259470
 H        -2.385710        -0.220212         1.680376
 H        -1.217456        -0.149075         3.083676
 H        -2.798593         2.148763         3.496346
 H        -0.987338         3.619522         3.260544
 H         1.049752         2.481131         1.568111
 H         0.932267         1.188215         2.836152
