19
Iteration:  1018
 O        -2.750268         3.946382         1.420248
 C        -1.867258         2.845100         1.669792
 C        -1.244818         2.003207         0.513160
 C        -0.498471         0.943707         1.290278
 O         0.066309        -0.116298         0.429807
 C        -1.638901         0.386249         2.320351
 C        -2.057685         1.743674         2.845388
 C        -0.881331         2.700616         2.799292
 C         0.327850         1.838477         2.206621
 H        -3.413139         3.687104         0.794536
 H        -2.092946         1.690032        -0.065796
 H        -0.578491         2.527123        -0.118405
 H         0.018753         0.200308        -0.457114
 H        -2.321570        -0.177130         1.700575
 H        -1.120641        -0.237990         3.106411
 H        -2.815911         1.855595         3.657622
 H        -0.717040         3.385092         3.631246
 H         1.092507         2.440891         1.620172
 H         0.895756         1.217711         2.906084
