19
Iteration:  1120
 O        -2.789329         3.858180         1.575389
 C        -1.867201         2.811998         1.662404
 C        -1.319968         2.032870         0.332701
 C        -0.551653         0.972658         1.187791
 O        -0.003385        -0.215677         0.537590
 C        -1.555744         0.445850         2.248365
 C        -1.952401         1.823689         2.821426
 C        -0.823839         2.775865         2.810405
 C         0.318749         1.847210         2.179017
 H        -3.574122         3.428892         1.118909
 H        -2.095912         1.658389        -0.266771
 H        -0.615547         2.669535        -0.262308
 H         0.978169        -0.215838         0.694692
 H        -2.496513         0.096036         1.726674
 H        -1.254911        -0.342533         2.955764
 H        -2.878248         1.910042         3.436772
 H        -0.718089         3.630595         3.512065
 H         1.034135         2.495007         1.609458
 H         1.001040         1.267736         2.876054
