19
Iteration:  3965charge 0 multiplicity 1
 O        -2.833863         3.800091         1.510234
 C        -1.850920         2.789263         1.595794
 C        -1.406671         1.899778         0.421229
 C        -0.530980         0.960090         1.301624
 O         0.022689        -0.123620         0.519025
 C        -1.548370         0.472937         2.330045
 C        -1.937447         1.882631         2.749168
 C        -0.722718         2.762666         2.707215
 C         0.340070         1.956806         2.093553
 H        -3.330976         3.819527         2.327981
 H        -2.316568         1.354511         0.084517
 H        -0.855400         2.230202        -0.459883
 H        -0.260260        -0.924129         0.974284
 H        -2.400054        -0.070161         1.864611
 H        -1.149453        -0.259408         3.150806
 H        -2.716869         1.877706         3.503231
 H        -0.591293         3.605954         3.400250
 H         1.047679         2.740607         1.620578
 H         1.113923         1.516686         2.782005
