19
Iteration:   819
 O        -2.757572         4.085421         1.598439
 C        -1.909205         2.831013         1.647281
 C        -1.356150         2.029448         0.403611
 C        -0.473498         0.941422         1.278187
 O         0.190658        -0.129528         0.577304
 C        -1.687545         0.346462         2.159772
 C        -2.095241         1.688577         2.725860
 C        -0.896996         2.571370         2.835813
 C         0.362487         1.843769         2.175432
 H        -2.912044         4.332963         0.635066
 H        -2.195704         1.531518        -0.126129
 H        -0.873261         2.715839        -0.321660
 H         1.041330         0.361657         0.225327
 H        -2.492976        -0.292375         1.698594
 H        -1.197456        -0.338217         2.924930
 H        -2.988109         1.865797         3.328151
 H        -0.796041         3.306760         3.625057
 H         1.198241         2.446303         1.622740
 H         0.635368         1.151559         2.985425
