19
Iteration:  1579
 O        -2.790264         3.922878         1.557048
 C        -1.883639         2.779834         1.666497
 C        -1.445096         1.951356         0.390308
 C        -0.506771         0.893868         1.295820
 O         0.170492        -0.128532         0.545998
 C        -1.658612         0.466448         2.295439
 C        -2.023723         1.797628         2.791931
 C        -0.816630         2.637737         2.762200
 C         0.389113         1.912602         2.134640
 H        -2.273438         4.571203         1.013451
 H        -2.325729         1.545522        -0.186883
 H        -0.867031         2.520640        -0.381953
 H        -0.383388        -0.566003        -0.214523
 H        -2.457383        -0.054060         1.734837
 H        -1.364592        -0.140986         3.145521
 H        -2.811141         1.943239         3.540781
 H        -0.583794         3.498196         3.323269
 H         0.957603         2.629947         1.505708
 H         1.047104         1.465210         2.950020
