19
Iteration:  1555charge 0 multiplicity 1
 O        -2.764794         3.783075         1.411762
 C        -1.844616         2.737298         1.727863
 C        -1.388201         1.917803         0.525083
 C        -0.593398         0.958527         1.330772
 O         0.038309         0.070493         0.431194
 C        -1.572245         0.450053         2.304366
 C        -2.014850         1.828729         2.840759
 C        -0.775313         2.811603         2.666140
 C         0.347734         1.724256         2.272291
 H        -2.350556         4.176513         0.617170
 H        -2.192703         1.481036        -0.163983
 H        -0.778156         2.497871        -0.139526
 H        -0.470417        -0.216066        -0.312229
 H        -2.446693        -0.098600         1.905019
 H        -0.864860        -0.272161         2.871171
 H        -2.642809         2.229638         3.649279
 H        -0.750570         3.674743         3.343416
 H         1.299669         2.046754         1.683023
 H         0.584334         1.086638         3.167842
