19
Iteration:  3032
 O        -2.593620         3.917324         1.417084
 C        -1.970950         2.704929         1.637936
 C        -1.464704         1.986251         0.414542
 C        -0.528590         0.986840         1.227694
 O         0.133708        -0.003053         0.434990
 C        -1.573633         0.393873         2.361693
 C        -2.071982         1.806546         2.916557
 C        -0.853562         2.675337         2.707365
 C         0.297952         1.840129         2.206159
 H        -3.586368         3.993675         1.383919
 H        -2.243189         1.638002        -0.222197
 H        -0.730548         2.675142        -0.060897
 H         0.629937        -0.626982         0.997265
 H        -2.401973        -0.179361         1.917110
 H        -0.986146        -0.232349         2.987506
 H        -2.703365         1.849647         3.824595
 H        -0.681918         3.496616         3.384592
 H         1.039452         2.369932         1.703737
 H         0.687675         1.067954         2.888366
