19
Iteration:  4080
 O        -2.902547         3.839842         1.475881
 C        -1.961088         2.820340         1.618616
 C        -1.463349         1.956753         0.457270
 C        -0.600077         0.844852         1.297600
 O         0.096954        -0.105835         0.507266
 C        -1.590039         0.487727         2.456652
 C        -1.905155         1.874346         2.849159
 C        -0.707203         2.805466         2.606845
 C         0.351375         1.760086         1.983526
 H        -2.763205         4.602374         2.043111
 H        -2.263995         1.415228        -0.097070
 H        -0.772468         2.456390        -0.308916
 H         0.995327        -0.179309         0.826556
 H        -2.429891        -0.256225         2.190071
 H        -0.844015        -0.095366         3.162431
 H        -2.514973         2.043278         3.764679
 H        -0.414537         3.496706         3.408548
 H         1.123303         2.183741         1.285449
 H         0.940247         1.391949         2.858916
