19
Iteration:  2523
 O        -2.697553         3.897192         1.507653
 C        -1.900297         2.783183         1.669600
 C        -1.498853         1.877222         0.396198
 C        -0.522753         0.956705         1.253959
 O         0.103629        -0.125849         0.590167
 C        -1.543614         0.458852         2.346064
 C        -2.014029         1.825897         2.832038
 C        -0.803996         2.747546         2.711520
 C         0.333751         1.910257         2.090969
 H        -3.606141         3.634962         1.421793
 H        -2.292694         1.331962        -0.064904
 H        -0.757419         2.418207        -0.267759
 H         0.335108         0.092333        -0.310077
 H        -2.472888         0.089552         1.783139
 H        -1.189309        -0.355647         3.001880
 H        -2.788096         1.986775         3.625475
 H        -0.593577         3.595079         3.383749
 H         1.172037         2.320199         1.528481
 H         0.773717         1.232450         2.846192
