19
Iteration:  2492charge 0 multiplicity 1
 O        -2.646857         3.942098         1.581359
 C        -1.909543         2.777976         1.673824
 C        -1.518508         1.899817         0.444333
 C        -0.619049         0.902105         1.267489
 O         0.145596        -0.075961         0.579814
 C        -1.555289         0.409148         2.394359
 C        -2.083843         1.785109         2.773452
 C        -0.788563         2.758708         2.664178
 C         0.293579         1.899098         1.945954
 H        -3.360792         3.735595         0.902654
 H        -2.369109         1.511597        -0.168252
 H        -0.794910         2.378201        -0.227382
 H         1.138942         0.042299         0.789121
 H        -2.403448        -0.286798         1.952060
 H        -1.094002        -0.256645         3.162699
 H        -2.693847         1.926860         3.704747
 H        -0.519687         3.559142         3.375486
 H         1.023827         2.366831         1.254828
 H         0.940559         1.385769         2.826004
