19
Iteration:  1519charge 0 multiplicity 1
 O        -2.876882         3.785884         1.433393
 C        -1.840826         2.782216         1.701331
 C        -1.330538         1.964603         0.501708
 C        -0.535303         0.898079         1.206684
 O         0.177799        -0.024753         0.433705
 C        -1.737513         0.524559         2.386737
 C        -2.058699         1.901409         2.878050
 C        -0.775113         2.667692         2.810527
 C         0.396009         1.777370         2.095271
 H        -2.344240         4.425484         0.901164
 H        -2.207255         1.568924         0.003202
 H        -0.647218         2.514345        -0.109747
 H        -0.488204        -0.474706        -0.115658
 H        -2.423504        -0.151461         1.866348
 H        -1.251234        -0.096473         3.223246
 H        -2.753205         2.201678         3.637776
 H        -0.552230         3.382544         3.621434
 H         1.087097         2.284599         1.376563
 H         1.021953         1.374158         2.869950
