19
Iteration:  3042
 O        -2.575302         3.973384         1.395886
 C        -2.087812         2.691298         1.689793
 C        -1.410606         2.022473         0.524144
 C        -0.572789         0.930042         1.246388
 O         0.109642        -0.060537         0.339769
 C        -1.516445         0.387831         2.369890
 C        -2.038502         1.758453         2.862387
 C        -0.841399         2.738507         2.723009
 C         0.274967         1.830473         2.210202
 H        -3.514712         4.041044         1.081797
 H        -2.033449         1.436427        -0.059664
 H        -0.865201         2.785455        -0.134644
 H         0.796792        -0.487478         0.975978
 H        -2.294293        -0.325866         1.964554
 H        -0.858978        -0.180850         3.097059
 H        -2.878740         1.881440         3.566589
 H        -0.741082         3.702084         3.201205
 H         1.113400         2.441707         2.003653
 H         0.714179         1.195947         3.121932
