19
Iteration:  2812charge 0 multiplicity 1
 O        -2.730375         3.949024         1.370463
 C        -1.956031         2.728183         1.724480
 C        -1.433035         1.960443         0.423146
 C        -0.614462         0.908026         1.225027
 O         0.147714         0.013325         0.419381
 C        -1.558248         0.456990         2.385294
 C        -1.981294         1.840489         2.895363
 C        -0.734529         2.716043         2.738546
 C         0.269255         1.795838         2.185205
 H        -3.578500         3.553122         1.089884
 H        -2.186195         1.535191        -0.346660
 H        -0.708566         2.539307        -0.314873
 H         0.507724        -0.740810         1.040245
 H        -2.465054        -0.100424         2.000543
 H        -1.001659        -0.132382         3.143243
 H        -2.690216         1.774135         3.732081
 H        -0.534533         3.369563         3.563839
 H         1.071731         2.280062         1.758795
 H         0.684945         1.067086         2.872146
