19
Iteration:  2102charge 0 multiplicity 1
 O        -2.702011         3.931023         1.579172
 C        -1.949315         2.753961         1.605263
 C        -1.466394         1.917656         0.479628
 C        -0.521938         0.907461         1.320355
 O         0.234115        -0.042321         0.543074
 C        -1.704346         0.414190         2.333231
 C        -2.017842         1.744186         2.859664
 C        -0.782087         2.772970         2.587598
 C         0.344957         1.913224         2.081078
 H        -3.657888         3.679137         1.447687
 H        -2.069734         1.352555        -0.118057
 H        -0.747866         2.417335        -0.145332
 H        -0.357448        -0.561929        -0.140853
 H        -2.475177        -0.200961         1.872984
 H        -1.188764        -0.238051         3.071708
 H        -2.679070         2.176446         3.649586
 H        -0.670570         3.641581         3.247863
 H         1.085964         2.321510         1.302250
 H         1.094535         1.516087         2.771954
