19
Iteration:  2760
 O        -2.554725         3.912992         1.581958
 C        -1.948798         2.699931         1.616927
 C        -1.391900         1.871330         0.432887
 C        -0.515045         0.944328         1.239632
 O         0.047747        -0.091012         0.497009
 C        -1.579203         0.417151         2.242340
 C        -2.051530         1.826154         2.913814
 C        -0.903401         2.752324         2.728515
 C         0.306212         1.987432         2.105252
 H        -3.387291         3.787697         1.132251
 H        -2.133262         1.298329        -0.132428
 H        -0.846828         2.358520        -0.261064
 H         0.421240        -0.660963         1.279260
 H        -2.389973         0.052494         1.634344
 H        -0.954253        -0.193246         2.956410
 H        -2.885960         1.700779         3.597525
 H        -0.923510         3.753704         3.123382
 H         0.876189         2.640148         1.316505
 H         1.019520         1.531637         2.851055
