19
Iteration:   791charge 0 multiplicity 1
 O        -2.542283         3.853962         1.465552
 C        -1.879971         2.719089         1.682091
 C        -1.329583         2.046787         0.480033
 C        -0.517896         0.959723         1.320285
 O         0.077437         0.038680         0.411705
 C        -1.641472         0.386046         2.216674
 C        -2.119173         1.704853         2.791527
 C        -0.925217         2.647987         2.818053
 C         0.223310         1.837203         2.253811
 H        -2.921023         3.860982         0.577253
 H        -2.137207         1.724020        -0.190843
 H        -0.726766         2.878089         0.023444
 H         0.810665         0.687084         0.090445
 H        -2.371367        -0.270471         1.799712
 H        -1.209642        -0.240369         2.998648
 H        -2.867465         1.907406         3.530874
 H        -0.783069         3.436468         3.552122
 H         1.082909         2.235011         1.788033
 H         0.517172         1.276248         3.155834
