19
Iteration:  2803charge 0 multiplicity 1
 O        -2.710826         3.974235         1.378328
 C        -1.919552         2.801223         1.711861
 C        -1.437794         1.958042         0.537334
 C        -0.641733         0.913395         1.266919
 O         0.194770         0.008821         0.418256
 C        -1.541798         0.434527         2.360553
 C        -2.066846         1.740212         2.851852
 C        -0.770240         2.744327         2.711712
 C         0.306425         1.748633         2.118652
 H        -3.485273         3.562612         0.944449
 H        -2.354893         1.526014         0.044964
 H        -0.873229         2.634483        -0.063456
 H         0.519200        -0.854546         0.894337
 H        -2.463533        -0.178355         2.143838
 H        -0.919149         0.102083         3.255877
 H        -2.759661         1.878278         3.663434
 H        -0.693783         3.615108         3.362510
 H         1.104450         2.264888         1.532874
 H         0.721330         1.047915         2.870047
