19
Iteration:  3200
 O        -2.679113         3.903205         1.502759
 C        -1.955685         2.731664         1.688896
 C        -1.505435         1.976715         0.441265
 C        -0.580444         0.933566         1.235917
 O         0.201801        -0.045089         0.590228
 C        -1.581423         0.450611         2.283956
 C        -2.027536         1.740535         2.876918
 C        -0.798647         2.771286         2.607186
 C         0.376615         1.837538         2.212276
 H        -3.507615         3.939347         0.965480
 H        -2.370086         1.536987        -0.157807
 H        -0.886093         2.504803        -0.231570
 H         0.129217        -0.093649        -0.367085
 H        -2.451525        -0.066936         1.830056
 H        -1.095476        -0.251699         2.950246
 H        -2.745967         1.882289         3.676012
 H        -0.787536         3.664343         3.216274
 H         1.261599         2.153930         1.535414
 H         0.646073         1.102165         3.058744
