19
Iteration:   221charge 0 multiplicity 1
 O        -2.571668         4.071323         1.588303
 C        -1.972301         2.688273         1.637627
 C        -1.420370         1.954524         0.432523
 C        -0.562667         0.917452         1.276495
 O         0.204123         0.090757         0.561187
 C        -1.614692         0.308864         2.162671
 C        -2.017575         1.683288         2.805455
 C        -0.886599         2.645324         2.713060
 C         0.258311         1.859724         2.121634
 H        -3.512931         4.261531         1.380593
 H        -2.198525         1.503376        -0.161154
 H        -0.756355         2.654806        -0.074308
 H         0.185088        -0.740062         1.023051
 H        -2.391091        -0.170488         1.591343
 H        -1.161308        -0.414451         2.867538
 H        -2.858179         1.840797         3.434488
 H        -0.876496         3.394975         3.480208
 H         0.873771         2.502936         1.542749
 H         0.854241         1.294523         2.841200
