19
Iteration:   742charge 0 multiplicity 1
 O        -2.716902         3.914307         1.512725
 C        -1.899823         2.818781         1.686750
 C        -1.254009         2.110326         0.493460
 C        -0.491682         1.001598         1.208201
 O         0.148867        -0.057295         0.629505
 C        -1.674317         0.390402         2.132517
 C        -2.158412         1.706646         2.655400
 C        -0.800718         2.665428         2.737950
 C         0.310532         1.763188         2.265510
 H        -3.505149         3.937139         2.115769
 H        -2.177224         1.770347        -0.142241
 H        -0.568742         2.764908        -0.142560
 H         0.376939         0.047672        -0.274460
 H        -2.466546        -0.198820         1.569464
 H        -1.325232        -0.403246         2.837641
 H        -3.061353         1.767629         3.326093
 H        -0.866409         3.229752         3.679146
 H         1.219591         2.326268         1.807332
 H         0.766008         0.975193         2.903434
