19
Iteration:  1938
 O        -2.656383         3.829467         1.375706
 C        -1.820256         2.721479         1.651555
 C        -1.469048         1.923568         0.482355
 C        -0.558484         0.963011         1.278064
 O        -0.009620         0.101148         0.400471
 C        -1.526940         0.408793         2.414279
 C        -2.026937         1.765682         2.866759
 C        -0.799182         2.735314         2.759368
 C         0.338279         1.901366         2.167807
 H        -3.435022         3.516293         0.905059
 H        -2.436496         1.327326         0.161220
 H        -0.848602         2.486163        -0.215491
 H         0.361780        -0.674161         0.791255
 H        -2.324797        -0.116043         1.899056
 H        -1.156634        -0.295402         3.213675
 H        -2.765177         2.026698         3.595618
 H        -0.717721         3.505324         3.512026
 H         1.093634         2.517193         1.629866
 H         0.914565         1.197881         2.750023
