19
Iteration:   552
 O        -2.696091         3.930608         1.455152
 C        -1.873113         2.786845         1.700840
 C        -1.261741         2.046550         0.491233
 C        -0.515129         0.924564         1.291976
 O         0.155838        -0.003666         0.382526
 C        -1.666293         0.329242         2.238810
 C        -2.228490         1.690575         2.677650
 C        -0.882587         2.620969         2.841694
 C         0.295713         1.823061         2.314690
 H        -2.563553         4.595457         2.143964
 H        -2.113184         1.661936        -0.077756
 H        -0.527971         2.542102        -0.191350
 H         0.837146         0.409505        -0.226886
 H        -2.344878        -0.124541         1.472348
 H        -1.421922        -0.466976         2.958073
 H        -2.950204         2.036049         3.438767
 H        -0.973053         3.418128         3.585567
 H         0.983987         2.580203         1.907193
 H         0.969363         1.250024         3.010364
