19
Iteration:  2836charge 0 multiplicity 1
 O        -2.716999         3.834576         1.497672
 C        -1.812848         2.725265         1.660147
 C        -1.318979         1.975666         0.492403
 C        -0.541977         0.948020         1.341440
 O        -0.006221        -0.029307         0.471589
 C        -1.668374         0.455688         2.272786
 C        -2.025817         1.792431         2.827342
 C        -0.797357         2.759292         2.636603
 C         0.374499         1.915162         2.166935
 H        -3.573319         3.323373         1.539253
 H        -2.112689         1.388592        -0.066642
 H        -0.784570         2.471125        -0.314996
 H         0.618792        -0.575853         0.927360
 H        -2.524202         0.026274         1.683225
 H        -1.289670        -0.355843         3.000189
 H        -2.867713         1.910839         3.490344
 H        -0.816755         3.695642         3.213669
 H         1.101896         2.463982         1.513698
 H         0.987425         1.317868         2.843009
