19
Iteration:  1961
 O        -2.742747         3.885524         1.456476
 C        -1.937490         2.784384         1.691121
 C        -1.367621         1.909892         0.528051
 C        -0.505373         0.862164         1.288866
 O         0.136169        -0.022846         0.454864
 C        -1.639917         0.427389         2.324025
 C        -2.018828         1.812180         2.840416
 C        -0.829258         2.749079         2.689664
 C         0.384917         1.921296         2.077886
 H        -3.698816         3.763375         1.632220
 H        -2.218712         1.309589        -0.052486
 H        -0.623008         2.584308         0.007861
 H        -0.214493        -1.008280         0.507645
 H        -2.570324        -0.015970         1.895821
 H        -1.185865        -0.321245         3.024010
 H        -2.739084         1.993676         3.600441
 H        -0.517278         3.392302         3.485957
 H         0.938090         2.557694         1.326802
 H         1.179508         1.752099         2.815291
