19
Iteration:  3154charge 0 multiplicity 1
 O        -2.651778         3.832952         1.452682
 C        -1.765453         2.726963         1.672780
 C        -1.372425         1.947531         0.490321
 C        -0.520313         0.928162         1.269206
 O         0.137186        -0.004910         0.427432
 C        -1.677530         0.476494         2.374498
 C        -2.093214         1.797201         2.723964
 C        -0.889449         2.701494         2.820612
 C         0.330495         1.937297         2.106073
 H        -3.503303         3.581669         1.893451
 H        -2.156238         1.328892        -0.000494
 H        -0.884850         2.559848        -0.225155
 H        -0.393037        -0.741922         0.374649
 H        -2.451112        -0.241641         1.968055
 H        -1.079082        -0.052301         3.201737
 H        -3.036023         1.927109         3.248261
 H        -0.670565         3.489583         3.546207
 H         0.899806         2.780515         1.644699
 H         1.049847         1.344615         2.880183
