19
Iteration:  1420
 O        -2.754652         3.806483         1.360889
 C        -1.918687         2.725511         1.709534
 C        -1.408905         1.991429         0.517885
 C        -0.556028         0.959602         1.328736
 O         0.062559         0.050996         0.438169
 C        -1.601987         0.428655         2.267914
 C        -1.941678         1.846793         2.919554
 C        -0.789661         2.684951         2.773138
 C         0.356359         1.809288         2.203480
 H        -2.196655         4.341881         0.734359
 H        -2.143172         1.444730        -0.051044
 H        -0.860015         2.591898        -0.213942
 H        -0.677245        -0.578361         0.084092
 H        -2.419726         0.031552         1.644548
 H        -1.178347        -0.363996         2.955788
 H        -2.827046         1.988231         3.558507
 H        -0.568157         3.507811         3.410980
 H         1.198307         2.346941         1.698984
 H         0.748094         1.019586         2.864576
