19
Iteration:  4972
 O        -2.810040         3.859882         1.439354
 C        -1.922048         2.772485         1.690376
 C        -1.443306         1.943860         0.490014
 C        -0.526033         0.927504         1.312361
 O        -0.054335        -0.112938         0.438233
 C        -1.513891         0.481823         2.430267
 C        -1.985606         1.823898         2.920247
 C        -0.672337         2.738554         2.608872
 C         0.391116         1.898032         2.032320
 H        -3.418184         3.568255         0.696383
 H        -2.298738         1.455769        -0.032647
 H        -1.018930         2.744225        -0.187552
 H         0.633166        -0.645396         0.911486
 H        -2.317161        -0.208737         2.086087
 H        -0.944419         0.031648         3.291013
 H        -2.582104         2.083470         3.752234
 H        -0.483601         3.435423         3.382201
 H         1.053415         2.449168         1.446536
 H         0.941344         1.503598         2.904193
