19
Iteration:  2939charge 0 multiplicity 1
 O        -2.634470         3.933775         1.411390
 C        -1.874276         2.744435         1.676488
 C        -1.365103         1.923016         0.522745
 C        -0.536341         0.885457         1.280472
 O         0.061589         0.030917         0.343635
 C        -1.611590         0.374981         2.344465
 C        -2.079956         1.779395         2.802063
 C        -0.880819         2.717785         2.780409
 C         0.337151         1.895153         2.175207
 H        -3.522761         3.726815         1.131051
 H        -2.256396         1.420047         0.195725
 H        -0.770099         2.466065        -0.152684
 H         0.556329        -0.547700         0.970974
 H        -2.431624        -0.327362         2.069205
 H        -1.100379        -0.078081         3.320209
 H        -2.793669         2.015260         3.604652
 H        -0.601739         3.480634         3.482393
 H         0.929912         2.619897         1.459822
 H         0.965730         1.354368         2.953541
