19
Iteration:  1400charge 0 multiplicity 1
 O        -2.834613         3.797125         1.387272
 C        -1.848493         2.760971         1.768767
 C        -1.319552         2.046905         0.518437
 C        -0.513331         0.931479         1.206137
 O         0.071666        -0.091786         0.401716
 C        -1.612720         0.461456         2.322313
 C        -2.111568         1.836225         2.843991
 C        -0.716099         2.756869         2.741304
 C         0.367040         1.794146         2.260782
 H        -2.742102         4.178474         0.501945
 H        -2.301717         1.653296         0.024610
 H        -0.718396         2.828005         0.102333
 H        -0.613024        -0.129336        -0.376640
 H        -2.351652        -0.236799         1.969141
 H        -1.175747        -0.049247         3.252478
 H        -2.580131         1.926995         3.825015
 H        -0.646597         3.509176         3.476583
 H         1.299003         2.279575         1.712103
 H         0.769614         1.095124         3.056317
