19
Iteration:  2458
 O        -2.648027         3.878840         1.485458
 C        -1.887519         2.737591         1.613944
 C        -1.473382         1.871192         0.431272
 C        -0.581864         0.933219         1.292822
 O         0.047705        -0.015750         0.479399
 C        -1.533311         0.412074         2.358335
 C        -2.021783         1.768765         2.860536
 C        -0.784492         2.789715         2.684249
 C         0.350609         1.970558         2.119187
 H        -3.577684         3.589817         1.376883
 H        -2.243900         1.333132        -0.088543
 H        -0.871084         2.464041        -0.310647
 H        -0.170573        -0.980907         0.815898
 H        -2.403484        -0.134660         1.795769
 H        -0.972339        -0.187117         3.109242
 H        -2.515168         1.793449         3.833867
 H        -0.682423         3.758592         3.234848
 H         1.033304         2.587938         1.462987
 H         0.870571         1.577379         3.113296
