19
Iteration:  2425charge 0 multiplicity 1
 O        -2.865132         3.837096         1.408731
 C        -1.852540         2.828571         1.670364
 C        -1.409005         1.945101         0.414549
 C        -0.563086         0.889593         1.285204
 O         0.117931        -0.085199         0.506487
 C        -1.557922         0.519322         2.404445
 C        -2.033006         1.877683         2.860849
 C        -0.708999         2.709710         2.722054
 C         0.375601         1.836326         2.109378
 H        -3.721202         3.498663         1.620408
 H        -2.194421         1.456471        -0.132646
 H        -0.831383         2.660277        -0.186331
 H        -0.460384        -0.357284        -0.204704
 H        -2.316828        -0.279481         2.035385
 H        -1.061180        -0.053991         3.215775
 H        -2.523784         1.905002         3.809452
 H        -0.479519         3.596918         3.333507
 H         1.140766         2.402219         1.484675
 H         1.068547         1.269912         2.886970
