19
Iteration:  2025charge 0 multiplicity 1
 O        -2.778866         3.947833         1.592529
 C        -1.893512         2.769266         1.623376
 C        -1.400711         1.900890         0.470311
 C        -0.534998         0.811255         1.280668
 O         0.210030        -0.089637         0.557906
 C        -1.642240         0.412130         2.292122
 C        -2.036058         1.846153         2.870834
 C        -0.782653         2.727007         2.635821
 C         0.358735         1.935092         2.104314
 H        -3.561093         3.538551         1.235866
 H        -2.297642         1.360841        -0.018605
 H        -0.832881         2.456164        -0.295049
 H        -0.036235        -0.091327        -0.429265
 H        -2.552924        -0.000165         1.916527
 H        -1.232926        -0.236710         3.090326
 H        -2.822198         2.016205         3.594204
 H        -0.569233         3.663845         3.172375
 H         0.792211         2.579398         1.308184
 H         1.076704         1.561566         2.811129
