19
Iteration:  3752
 O        -2.711306         3.876810         1.355188
 C        -1.927398         2.702178         1.697649
 C        -1.492332         1.882927         0.550665
 C        -0.485202         0.981688         1.268514
 O         0.040239        -0.093203         0.488418
 C        -1.601038         0.415134         2.396612
 C        -2.084187         1.783594         2.858808
 C        -0.795339         2.680748         2.714118
 C         0.358149         1.973093         2.016981
 H        -2.346000         4.655831         1.762616
 H        -2.396865         1.422167         0.124504
 H        -1.041029         2.540663        -0.230958
 H         1.062881        -0.147762         0.432521
 H        -2.285534        -0.329625         1.918113
 H        -1.004363        -0.181500         3.181793
 H        -2.711528         1.977786         3.793037
 H        -0.610461         3.546130         3.389623
 H         0.870167         2.724943         1.447733
 H         1.192136         1.614363         2.745224
