19
Iteration:  2681charge 0 multiplicity 1
 O        -2.700139         3.900482         1.400817
 C        -1.957431         2.701964         1.655615
 C        -1.375446         1.908165         0.498024
 C        -0.534306         0.935206         1.304546
 O        -0.023970         0.004548         0.413872
 C        -1.646602         0.419688         2.272438
 C        -1.988157         1.785156         2.899624
 C        -0.725338         2.762570         2.670299
 C         0.410290         1.913016         2.262485
 H        -3.600536         3.599699         1.339594
 H        -2.149607         1.400922        -0.079753
 H        -0.846681         2.556431        -0.060877
 H         0.551308        -0.641573         0.923947
 H        -2.412115        -0.112441         1.692043
 H        -1.250535        -0.433613         2.800292
 H        -2.677420         1.940865         3.774282
 H        -0.687735         3.715973         3.228193
 H         1.134074         2.301397         1.560478
 H         1.003969         1.491653         3.133864
