19
Iteration:  1990
 O        -2.779038         3.862947         1.629110
 C        -1.897125         2.805381         1.613259
 C        -1.464168         2.009603         0.346272
 C        -0.578249         0.963387         1.159955
 O         0.199614        -0.098220         0.752348
 C        -1.550390         0.453767         2.216797
 C        -2.012901         1.793251         2.804492
 C        -0.782918         2.751302         2.630015
 C         0.320510         1.822483         2.087134
 H        -3.619996         3.699048         2.018060
 H        -2.224179         1.501182        -0.171194
 H        -0.865006         2.600331        -0.270968
 H        -0.315723        -0.701957         0.112513
 H        -2.377624        -0.193299         2.035352
 H        -0.853722        -0.114923         2.846411
 H        -2.726612         1.885808         3.622093
 H        -0.458128         3.693365         3.083853
 H         1.137168         2.317678         1.566033
 H         0.838499         1.292823         2.875498
