19
Iteration:  4685
 O        -2.759191         3.740698         1.480325
 C        -1.906509         2.706152         1.661139
 C        -1.518474         1.938078         0.411641
 C        -0.587453         0.944555         1.235853
 O        -0.073529        -0.144661         0.559486
 C        -1.381199         0.499129         2.418122
 C        -1.972603         1.857140         2.842048
 C        -0.759762         2.822951         2.621273
 C         0.310033         1.965413         1.968334
 H        -2.570070         4.373414         2.178843
 H        -2.417960         1.361577         0.017797
 H        -1.077463         2.618398        -0.355052
 H         0.329712        -0.631404         1.240565
 H        -1.914080        -0.398521         2.313526
 H        -0.566450         0.233640         3.157605
 H        -2.541782         2.001326         3.742875
 H        -0.437077         3.665585         3.209786
 H         1.004084         2.484490         1.341322
 H         0.967662         1.349557         2.712841
