19
Iteration:  2409
 O        -2.837735         3.858576         1.464674
 C        -1.937433         2.768014         1.665117
 C        -1.388111         1.959888         0.479197
 C        -0.596147         0.908374         1.242781
 O         0.152447        -0.157692         0.569943
 C        -1.633984         0.432977         2.381410
 C        -1.896930         1.857684         2.900763
 C        -0.748487         2.808559         2.611151
 C         0.352347         1.862244         2.056489
 H        -3.739042         3.536008         1.700710
 H        -2.204014         1.594436        -0.264433
 H        -0.488584         2.526235        -0.068877
 H         0.128936         0.138572        -0.308031
 H        -2.538739         0.059071         1.924571
 H        -1.159899        -0.248823         3.119135
 H        -2.548551         2.177458         3.752850
 H        -0.551653         3.525000         3.408848
 H         1.089219         2.354943         1.401007
 H         0.839237         1.347621         2.849762
