19
Iteration:  2491
 O        -2.646634         3.948047         1.582655
 C        -1.914675         2.773808         1.663737
 C        -1.523340         1.889398         0.456727
 C        -0.615475         0.906154         1.263926
 O         0.150708        -0.078522         0.573897
 C        -1.552457         0.411200         2.401283
 C        -2.084725         1.785013         2.779952
 C        -0.791862         2.766384         2.668669
 C         0.296444         1.891002         1.939300
 H        -3.355051         3.733988         0.897590
 H        -2.319906         1.525077        -0.192365
 H        -0.787819         2.426800        -0.240218
 H         1.103383        -0.008618         0.801885
 H        -2.398106        -0.268113         1.913047
 H        -1.104985        -0.262150         3.171307
 H        -2.696877         1.930006         3.698145
 H        -0.541688         3.557572         3.410317
 H         1.029492         2.389500         1.251461
 H         0.912486         1.392273         2.814917
