19
Iteration:   384
 O        -2.515392         3.994861         1.476829
 C        -1.892895         2.776339         1.682021
 C        -1.459875         1.962582         0.446328
 C        -0.551787         0.958728         1.330482
 O         0.172512         0.045697         0.425310
 C        -1.591528         0.352032         2.202206
 C        -2.183821         1.659214         2.748832
 C        -0.934118         2.646037         2.824223
 C         0.308642         1.802496         2.312246
 H        -3.145026         3.972680         0.752267
 H        -2.242587         1.370534        -0.002281
 H        -0.822113         2.565954        -0.155009
 H         0.672312         0.621355        -0.230927
 H        -2.310251        -0.218284         1.628684
 H        -1.128474        -0.283822         3.003910
 H        -2.976045         1.757720         3.530504
 H        -1.092491         3.482504         3.545802
 H         1.120054         2.433507         1.914062
 H         0.757717         1.163418         3.135845
