19
Iteration:   519charge 0 multiplicity 1
 O        -2.579244         3.951550         1.254886
 C        -1.915393         2.718670         1.720657
 C        -1.358814         2.054152         0.478599
 C        -0.571195         1.021885         1.259720
 O         0.093824         0.126887         0.463054
 C        -1.572694         0.314206         2.219016
 C        -2.119515         1.627553         2.821189
 C        -0.884411         2.556219         2.859728
 C         0.281810         1.762772         2.346251
 H        -3.075419         4.519136         1.915829
 H        -2.203326         1.727641        -0.148996
 H        -0.643821         2.690283        -0.141848
 H         0.777829         0.629050        -0.105356
 H        -2.405510         0.050237         1.544211
 H        -1.230465        -0.463306         2.937820
 H        -2.824246         1.832402         3.629756
 H        -0.935855         3.230052         3.707254
 H         1.065538         2.398963         1.878319
 H         0.602739         0.864948         2.937178
