19
Iteration:  3218charge 0 multiplicity 1
 O        -2.711090         3.886218         1.665808
 C        -1.867571         2.793870         1.571186
 C        -1.405942         1.876454         0.389668
 C        -0.536546         0.937212         1.259794
 O         0.177849        -0.111196         0.587398
 C        -1.619037         0.415369         2.302134
 C        -2.015277         1.883556         2.771992
 C        -0.803095         2.691751         2.727347
 C         0.261507         1.909983         2.114629
 H        -3.371044         3.644644         0.955058
 H        -2.190729         1.270722         0.015391
 H        -0.989352         2.521812        -0.430461
 H         0.252151         0.213301        -0.346363
 H        -2.489492        -0.112174         1.797747
 H        -1.194984        -0.111593         3.258854
 H        -2.890785         2.039464         3.376950
 H        -0.568101         3.521469         3.399119
 H         0.737345         2.634888         1.546740
 H         0.753476         1.278182         2.857873
