19
Iteration:   540
 O        -2.581436         3.841569         1.360001
 C        -1.814053         2.745090         1.731571
 C        -1.318697         2.011867         0.519884
 C        -0.494713         0.959875         1.243324
 O         0.122145         0.052985         0.342608
 C        -1.659840         0.354783         2.147835
 C        -2.206189         1.749624         2.768017
 C        -0.942507         2.608736         2.916483
 C         0.248926         1.842820         2.362955
 H        -2.715681         4.493335         2.055646
 H        -2.074856         1.552763        -0.064420
 H        -0.868493         2.812720        -0.071305
 H         0.759587         0.579113        -0.077699
 H        -2.473112        -0.283925         1.791225
 H        -1.219594        -0.034667         3.083582
 H        -3.055697         1.729002         3.469183
 H        -0.711818         3.452687         3.561926
 H         0.937091         2.346348         1.691832
 H         0.693731         1.161032         3.137361
