19
Iteration:  1047
 O        -2.509678         3.878226         1.380804
 C        -1.892641         2.708004         1.672778
 C        -1.478878         1.958122         0.466711
 C        -0.563329         0.982699         1.269111
 O         0.069072         0.032960         0.486077
 C        -1.628272         0.365182         2.309185
 C        -2.129046         1.718313         2.815767
 C        -0.819945         2.720367         2.835630
 C         0.339278         1.877833         2.219251
 H        -3.480863         3.820225         1.307461
 H        -2.470040         1.561892        -0.026719
 H        -0.916224         2.630223        -0.271991
 H         0.682422         0.437657        -0.243497
 H        -2.203923        -0.378396         1.723650
 H        -1.077462        -0.190473         3.064389
 H        -2.975072         1.939321         3.523467
 H        -0.812290         3.591299         3.523461
 H         1.199349         2.354666         1.791559
 H         0.858974         1.090137         2.789123
