19
Iteration:  1838charge 0 multiplicity 1
 O        -2.835230         3.958185         1.410148
 C        -1.909555         2.776114         1.665050
 C        -1.407611         1.989912         0.489721
 C        -0.558945         0.922685         1.292405
 O         0.173297        -0.061586         0.551861
 C        -1.586284         0.354057         2.316005
 C        -2.035352         1.859292         2.795326
 C        -0.761450         2.737528         2.675698
 C         0.393775         1.792041         2.116620
 H        -3.388482         3.899883         2.202429
 H        -2.073014         1.472419        -0.286665
 H        -0.664078         2.547741        -0.043056
 H        -0.477481        -0.682318         0.045431
 H        -2.391936        -0.117895         1.890139
 H        -1.032306        -0.266533         3.047246
 H        -2.487688         1.832054         3.803775
 H        -0.768297         3.628820         3.376060
 H         1.181505         2.263337         1.515320
 H         0.756691         1.305754         2.951555
