19
Iteration:  3059charge 0 multiplicity 1
 O        -2.615260         3.998144         1.436512
 C        -1.878229         2.769338         1.644166
 C        -1.394005         1.892185         0.494828
 C        -0.492359         0.910847         1.311399
 O         0.003839        -0.000969         0.364190
 C        -1.527597         0.385364         2.351685
 C        -2.108244         1.729502         2.837415
 C        -0.923107         2.701559         2.708829
 C         0.314694         1.905580         2.251742
 H        -3.372541         3.768469         0.835742
 H        -2.273496         1.468315        -0.123224
 H        -0.662098         2.469052        -0.048233
 H         0.895924        -0.346793         0.594638
 H        -2.286032        -0.276572         1.939754
 H        -0.980987        -0.110992         3.186953
 H        -2.727911         1.702411         3.711217
 H        -0.867702         3.492056         3.470933
 H         1.026123         2.388382         1.504917
 H         0.810915         1.367978         3.020070
