19
Iteration:  2633charge 0 multiplicity 1
 O        -2.580298         3.918080         1.648966
 C        -1.945650         2.728598         1.596254
 C        -1.479100         1.943775         0.393354
 C        -0.544842         0.900240         1.270427
 O         0.151984        -0.034913         0.543615
 C        -1.571146         0.451144         2.382349
 C        -2.088729         1.751976         2.783010
 C        -0.829328         2.714372         2.670223
 C         0.289588         1.935094         2.047674
 H        -3.297712         3.916561         0.949653
 H        -2.219767         1.385820        -0.196832
 H        -0.757529         2.581467        -0.304398
 H         0.032057        -0.915184         0.960078
 H        -2.313622        -0.257454         1.952749
 H        -1.204685        -0.126101         3.192493
 H        -2.905831         1.989183         3.428631
 H        -0.620061         3.647992         3.166018
 H         0.930695         2.581761         1.492337
 H         0.922984         1.369048         2.674542
