19
Iteration:   986
 O        -2.720695         3.859783         1.695942
 C        -1.875075         2.757663         1.599209
 C        -1.261110         2.034379         0.376089
 C        -0.536073         0.986091         1.239540
 O         0.131601        -0.125975         0.672174
 C        -1.694545         0.489970         2.174896
 C        -2.009027         1.778321         2.781201
 C        -0.859843         2.706845         2.631968
 C         0.304351         1.814731         2.188885
 H        -3.544519         3.752111         1.150321
 H        -2.096289         1.733839        -0.231148
 H        -0.573031         2.662358        -0.196378
 H         0.081367        -0.058929        -0.353971
 H        -2.479630         0.011489         1.585857
 H        -1.386604        -0.356023         2.880985
 H        -2.781088         1.916539         3.584076
 H        -0.703614         3.540850         3.314288
 H         1.044697         2.417413         1.560648
 H         0.722683         1.222641         3.039577
