19
Iteration:  3410
 O        -2.804747         3.788860         1.463645
 C        -1.915024         2.724026         1.614874
 C        -1.439918         1.949009         0.436873
 C        -0.526463         0.965798         1.321831
 O         0.065701         0.043371         0.448616
 C        -1.573447         0.444008         2.409711
 C        -1.984129         1.822876         2.894910
 C        -0.800379         2.740656         2.618478
 C         0.343102         1.765412         2.194755
 H        -2.321043         4.587609         1.137774
 H        -2.260790         1.589698        -0.205661
 H        -0.910843         2.513839        -0.267018
 H         0.967919         0.204505         0.356689
 H        -2.466456        -0.104119         1.994991
 H        -1.138861        -0.303538         3.064564
 H        -2.751453         1.975964         3.636234
 H        -0.724017         3.536302         3.326618
 H         1.204659         2.087445         1.638943
 H         0.647314         1.053762         2.933321
