19
Iteration:   132charge 0 multiplicity 1
 O        -2.640470         3.944260         1.497751
 C        -1.888750         2.723388         1.696048
 C        -1.383604         1.912453         0.422611
 C        -0.533507         0.940497         1.189758
 O         0.107030        -0.042024         0.408345
 C        -1.623975         0.433794         2.312316
 C        -2.098744         1.781213         2.839050
 C        -0.867772         2.636387         2.873861
 C         0.321518         1.894188         2.175013
 H        -3.589599         3.660589         1.465455
 H        -2.173658         1.506540        -0.188096
 H        -0.831299         2.570342        -0.234075
 H         0.955412         0.381049         0.177626
 H        -2.363347        -0.216128         1.863880
 H        -1.088424         0.042453         3.160172
 H        -2.888912         1.740426         3.622478
 H        -0.744078         3.563191         3.494039
 H         0.790708         2.599839         1.508245
 H         1.043878         1.252801         2.639306
