19
Iteration:   492charge 0 multiplicity 1
 O        -2.672705         3.970788         1.475666
 C        -1.907646         2.770311         1.720333
 C        -1.280618         2.055382         0.538425
 C        -0.545217         0.909749         1.241653
 O         0.234378        -0.100138         0.506525
 C        -1.664781         0.401006         2.130556
 C        -2.167598         1.700666         2.700814
 C        -0.876385         2.665609         2.761900
 C         0.275428         1.829496         2.275833
 H        -3.384938         4.176414         2.130352
 H        -2.145397         1.824687        -0.097722
 H        -0.571246         2.543701        -0.072310
 H         0.760484         0.500670        -0.131113
 H        -2.480038         0.027448         1.494389
 H        -1.395919        -0.348143         2.897895
 H        -2.981626         1.847842         3.424224
 H        -0.860439         3.239442         3.696367
 H         0.938163         2.485027         1.653694
 H         0.817947         1.182661         2.963415
