19
Iteration:  3334
 O        -2.662333         3.899992         1.554691
 C        -1.937624         2.732513         1.627764
 C        -1.406873         2.037543         0.410405
 C        -0.547668         0.948346         1.181966
 O         0.097855        -0.173535         0.612533
 C        -1.543895         0.425458         2.309924
 C        -1.983723         1.767907         2.860645
 C        -0.889584         2.734973         2.674283
 C         0.310455         1.895738         2.134878
 H        -3.621253         3.717884         1.450345
 H        -2.185057         1.481415        -0.180069
 H        -0.870898         2.741951        -0.274286
 H         0.706261         0.198205        -0.123757
 H        -2.399661        -0.016447         1.822867
 H        -0.999889        -0.205732         2.956284
 H        -2.834754         1.960611         3.505949
 H        -0.840658         3.582587         3.378802
 H         1.103541         2.555147         1.563605
 H         0.641028         1.247480         2.943890
