19
Iteration:  2871
 O        -2.751028         3.974295         1.578747
 C        -1.918766         2.825601         1.615381
 C        -1.326305         2.032049         0.372556
 C        -0.540650         0.904026         1.188703
 O         0.096952        -0.148791         0.542972
 C        -1.600613         0.451475         2.338572
 C        -2.024162         1.778775         2.831014
 C        -0.834605         2.649325         2.678090
 C         0.343156         1.867870         2.108040
 H        -3.637261         3.551570         1.373911
 H        -2.206753         1.540528        -0.062339
 H        -0.669732         2.566783        -0.209522
 H         0.708644        -0.509485         1.142812
 H        -2.356553        -0.236488         1.889894
 H        -1.074620        -0.198614         3.211417
 H        -2.832235         1.812143         3.564397
 H        -0.841558         3.576733         3.285482
 H         0.966639         2.623972         1.432695
 H         0.908861         1.361246         2.941680
