19
Iteration:  4534
 O        -2.955167         3.697594         1.574214
 C        -1.913079         2.842085         1.627840
 C        -1.568828         1.921605         0.486634
 C        -0.593579         0.869556         1.254978
 O         0.079343        -0.122819         0.507402
 C        -1.555307         0.523758         2.449868
 C        -1.877770         2.027587         2.860208
 C        -0.596552         2.742114         2.560857
 C         0.424547         1.875774         1.968756
 H        -3.025802         4.357063         0.832075
 H        -2.361163         1.338695         0.003945
 H        -1.108487         2.502758        -0.266137
 H         0.436294        -0.686244         1.141754
 H        -2.386495        -0.097002         2.039750
 H        -1.057220        -0.059528         3.261831
 H        -2.312245         2.207466         3.903122
 H        -0.429281         3.443751         3.366721
 H         1.134329         2.327592         1.314141
 H         0.957439         1.238072         2.694808
