19
Iteration:  3459
 O        -2.699462         3.804776         1.472258
 C        -1.872268         2.717956         1.641712
 C        -1.388155         1.974055         0.435312
 C        -0.581232         0.956657         1.317857
 O         0.058446        -0.045120         0.526985
 C        -1.613792         0.407316         2.321590
 C        -2.058803         1.815212         2.795884
 C        -0.788365         2.656547         2.729948
 C         0.294489         1.999253         2.016858
 H        -2.982391         3.944234         2.382097
 H        -2.067717         1.640190        -0.324680
 H        -0.544673         2.394041        -0.225388
 H         0.723995        -0.505167         1.190235
 H        -2.403203        -0.137934         1.917063
 H        -1.308176        -0.272788         3.131624
 H        -2.656036         1.758749         3.708349
 H        -0.560078         3.575023         3.307447
 H         0.635222         2.830471         1.244213
 H         1.186428         1.693801         2.672538
