19
Iteration:  4050
 O        -2.670485         3.807292         1.553316
 C        -1.957809         2.701091         1.631100
 C        -1.497079         1.862010         0.438579
 C        -0.534558         0.954445         1.309357
 O        -0.051860        -0.139828         0.497843
 C        -1.524927         0.476068         2.367247
 C        -2.041321         1.793409         2.878869
 C        -0.812561         2.809517         2.657718
 C         0.390951         2.039185         2.013215
 H        -2.128179         4.365769         0.953599
 H        -2.266361         1.186338         0.066069
 H        -0.992661         2.457424        -0.356316
 H         0.887112        -0.418252         0.843554
 H        -2.242738        -0.274242         2.064000
 H        -0.847782        -0.101998         3.026882
 H        -2.761467         1.817068         3.668783
 H        -0.945107         3.666290         3.328344
 H         1.033956         2.655422         1.371504
 H         1.210299         1.734553         2.773019
