19
Iteration:  2701charge 0 multiplicity 1
 O        -2.695209         3.754297         1.468400
 C        -1.832748         2.743584         1.634046
 C        -1.390370         1.928346         0.472943
 C        -0.559386         0.933972         1.268817
 O         0.071869        -0.010785         0.389030
 C        -1.729159         0.479608         2.365704
 C        -1.981606         1.893993         2.828879
 C        -0.763715         2.769692         2.698591
 C         0.361391         1.858873         2.184104
 H        -3.544178         3.346595         1.725238
 H        -2.229307         1.490603        -0.113135
 H        -0.725752         2.540262        -0.245392
 H         0.838078        -0.357276         0.775086
 H        -2.677098         0.115774         1.883300
 H        -1.604446        -0.221854         3.153945
 H        -2.806654         1.996792         3.553437
 H        -0.686202         3.629522         3.410404
 H         1.142674         2.361087         1.740889
 H         0.694740         1.309307         3.059974
