19
Iteration:  4386
 O        -2.919290         3.761364         1.347675
 C        -1.826016         2.838875         1.708220
 C        -1.484854         1.946432         0.532082
 C        -0.632683         0.861087         1.300763
 O        -0.159433        -0.131863         0.421467
 C        -1.393686         0.475965         2.536713
 C        -1.883792         1.917618         2.865050
 C        -0.650161         2.807796         2.611243
 C         0.442233         1.899189         1.992059
 H        -3.719721         3.439820         1.790355
 H        -2.421185         1.575966         0.048584
 H        -0.829989         2.476647        -0.254331
 H         0.468719        -0.709919         0.954602
 H        -2.205271        -0.229908         2.249566
 H        -0.720234         0.017818         3.280953
 H        -2.500148         2.172874         3.795528
 H        -0.214077         3.574340         3.240852
 H         1.111348         2.619483         1.354293
 H         1.100401         1.428342         2.776029
