19
Iteration:  1055charge 0 multiplicity 1
 O        -2.509143         3.942024         1.430355
 C        -1.902832         2.725616         1.696207
 C        -1.469018         1.966123         0.509147
 C        -0.555337         0.908221         1.222713
 O         0.152945        -0.041676         0.443154
 C        -1.620915         0.375485         2.299323
 C        -2.147651         1.715385         2.860872
 C        -0.864839         2.772145         2.735060
 C         0.293257         1.888085         2.196402
 H        -3.460253         3.884873         1.524803
 H        -2.267302         1.384330         0.052263
 H        -0.913369         2.561009        -0.299488
 H         0.928293         0.373630        -0.059231
 H        -2.453876        -0.203032         1.802854
 H        -1.260288        -0.301299         3.058782
 H        -2.909204         1.835568         3.606559
 H        -0.880682         3.568344         3.485345
 H         1.073961         2.558672         1.786077
 H         0.733824         1.121741         2.936454
