19
Iteration:  1412charge 0 multiplicity 1
 O        -2.766692         3.761917         1.355696
 C        -1.941301         2.770626         1.729943
 C        -1.398577         2.051462         0.572143
 C        -0.538849         0.994075         1.269048
 O         0.071072        -0.033176         0.393139
 C        -1.597842         0.523214         2.314604
 C        -2.045980         1.787294         2.917185
 C        -0.750539         2.720482         2.731837
 C         0.400325         1.744021         2.249078
 H        -2.235594         4.110130         0.585643
 H        -2.173112         1.537048        -0.166917
 H        -0.904367         2.648550        -0.204137
 H        -0.628999        -0.469570        -0.190354
 H        -2.452214         0.106834         1.805149
 H        -1.052426        -0.235032         2.932352
 H        -2.844624         1.855060         3.632443
 H        -0.489714         3.492373         3.426077
 H         1.266662         2.333577         1.725143
 H         0.791514         1.267627         3.180814
