19
Iteration:  4333
 O        -2.754491         3.933472         1.605184
 C        -1.959178         2.739952         1.665531
 C        -1.605461         1.762021         0.477045
 C        -0.560671         0.852394         1.323000
 O         0.027649        -0.142010         0.477717
 C        -1.496080         0.470754         2.446666
 C        -1.821955         1.871520         2.880388
 C        -0.737882         2.880849         2.549203
 C         0.368401         1.958479         1.903995
 H        -3.207100         4.053774         0.759180
 H        -2.519433         1.161554         0.434114
 H        -1.395422         2.262566        -0.509297
 H         0.456954        -0.732380         1.196649
 H        -2.260653        -0.139304         1.985295
 H        -0.888241        -0.090027         3.240927
 H        -2.517352         2.199197         3.719089
 H        -0.657813         3.766743         3.185664
 H         1.048315         2.367833         1.166002
 H         0.999249         1.458866         2.656804
