19
Iteration:   298charge 0 multiplicity 1
 O        -2.779844         3.901947         1.502072
 C        -1.935462         2.793148         1.756470
 C        -1.274491         2.099297         0.517390
 C        -0.498054         0.910777         1.252876
 O         0.112681        -0.155812         0.384718
 C        -1.663469         0.413304         2.175211
 C        -2.025684         1.806131         2.754670
 C        -0.814313         2.701234         2.749245
 C         0.289270         1.820883         2.280154
 H        -3.715121         3.643302         1.244481
 H        -1.829621         1.822497        -0.386631
 H        -0.527626         2.872029         0.139413
 H         1.119948         0.000501         0.390430
 H        -2.550666         0.099214         1.692902
 H        -1.349244        -0.389411         2.896777
 H        -2.795874         1.905505         3.540545
 H        -0.666520         3.477800         3.510021
 H         1.157077         2.268824         1.885901
 H         0.572211         1.223129         3.171441
