19
Iteration:  2887
 O        -2.629213         3.928842         1.518541
 C        -1.923745         2.695222         1.667444
 C        -1.478867         1.999616         0.405264
 C        -0.629553         0.970950         1.262796
 O         0.154102        -0.054394         0.538790
 C        -1.531234         0.411634         2.292588
 C        -2.033123         1.779586         2.835037
 C        -0.833987         2.758630         2.671836
 C         0.241953         1.835963         2.109625
 H        -3.525132         3.787899         1.167337
 H        -2.160200         1.585736        -0.351742
 H        -0.718713         2.726148        -0.103216
 H         0.670808        -0.440365         1.209049
 H        -2.357888        -0.231088         2.005584
 H        -0.915093        -0.184031         2.901566
 H        -2.723094         1.946030         3.661898
 H        -0.482198         3.507002         3.356790
 H         1.074843         2.222331         1.596596
 H         0.676590         1.077238         2.811221
