19
Iteration:  4400
 O        -2.901215         3.770772         1.413165
 C        -1.881802         2.778673         1.658268
 C        -1.517297         1.833123         0.518334
 C        -0.564247         0.916944         1.257048
 O        -0.045914        -0.132956         0.426832
 C        -1.577872         0.463584         2.452380
 C        -1.852546         1.955138         2.956265
 C        -0.571688         2.893819         2.569122
 C         0.415493         1.919812         2.004607
 H        -3.431547         3.757419         2.258629
 H        -2.434895         1.302190         0.210850
 H        -1.055064         2.307506        -0.355747
 H         0.631806        -0.565878         0.910271
 H        -2.381634        -0.202238         2.158892
 H        -0.974510        -0.040239         3.293737
 H        -2.408428         2.315358         3.801931
 H        -0.553851         3.719084         3.265563
 H         1.164653         2.143082         1.292353
 H         0.866325         1.328836         2.825579
