19
Iteration:  2100
 O        -2.705125         3.939195         1.562075
 C        -1.939711         2.767955         1.618191
 C        -1.451302         1.902439         0.487634
 C        -0.524426         0.903147         1.310473
 O         0.223213        -0.044816         0.521415
 C        -1.685532         0.428752         2.349086
 C        -2.027882         1.741058         2.852895
 C        -0.781161         2.740753         2.588338
 C         0.341193         1.911802         2.100480
 H        -3.663026         3.682406         1.403583
 H        -2.150381         1.352728        -0.056327
 H        -0.802018         2.376789        -0.151602
 H        -0.325902        -0.480477        -0.136084
 H        -2.422893        -0.186236         1.856487
 H        -1.155990        -0.203026         3.099086
 H        -2.622657         2.183900         3.666793
 H        -0.700658         3.624903         3.250307
 H         1.006274         2.423176         1.326490
 H         1.058362         1.570020         2.836276
