19
Iteration:  4288
 O        -2.710122         3.856838         1.550922
 C        -1.911351         2.735830         1.702427
 C        -1.583410         1.835220         0.474274
 C        -0.623270         0.905691         1.252930
 O         0.014737        -0.150989         0.511004
 C        -1.511338         0.381075         2.498494
 C        -1.887682         1.910344         2.971007
 C        -0.704479         2.868491         2.489778
 C         0.296851         1.981363         1.917570
 H        -3.376263         3.805431         0.829054
 H        -2.392739         1.217290         0.054136
 H        -0.902289         2.346045        -0.261535
 H         0.967729        -0.129098         0.810239
 H        -2.502310        -0.035227         2.225964
 H        -0.926034        -0.226239         3.232873
 H        -2.501522         2.149168         3.845106
 H        -0.362622         3.686308         3.115945
 H         0.847409         2.351498         1.037672
 H         1.040662         1.524970         2.555195
