19
Iteration:  4692charge 0 multiplicity 1
 O        -2.747788         3.798550         1.461322
 C        -1.957342         2.704116         1.655000
 C        -1.554650         1.866400         0.489348
 C        -0.533265         0.988233         1.211910
 O        -0.028582        -0.126651         0.522400
 C        -1.433784         0.527906         2.445097
 C        -1.954771         1.791492         2.877228
 C        -0.775146         2.835742         2.603411
 C         0.343063         1.923923         1.975287
 H        -2.553837         4.482512         2.145771
 H        -2.257304         1.216148        -0.058449
 H        -1.108150         2.503830        -0.304798
 H         0.357458        -0.837918         1.115877
 H        -2.250699        -0.263363         2.248501
 H        -0.733837         0.154724         3.226874
 H        -2.568877         1.987710         3.798601
 H        -0.342394         3.669110         3.193294
 H         0.927768         2.501725         1.203467
 H         1.006946         1.578644         2.703116
