19
Iteration:  2305
 O        -2.778401         3.850026         1.414033
 C        -1.837963         2.715187         1.666443
 C        -1.498021         1.852396         0.522635
 C        -0.565852         0.943622         1.281960
 O         0.109267        -0.012555         0.420190
 C        -1.520260         0.460137         2.303403
 C        -1.992495         1.920691         2.941360
 C        -0.768639         2.762827         2.715582
 C         0.409403         1.925831         2.110289
 H        -3.645738         3.327978         1.356375
 H        -2.466334         1.281091         0.240029
 H        -1.014931         2.406853        -0.242913
 H        -0.263118        -0.948418         0.581639
 H        -2.429670        -0.007835         1.854621
 H        -1.229980        -0.276738         3.020329
 H        -2.817091         2.014090         3.684040
 H        -0.526352         3.643941         3.275243
 H         1.221586         2.362943         1.556242
 H         0.849395         1.241685         2.930892
