19
Iteration:  4046
 O        -2.651673         3.798584         1.548101
 C        -1.926855         2.693002         1.652914
 C        -1.520240         1.866703         0.446815
 C        -0.520445         0.974465         1.330099
 O        -0.047097        -0.129045         0.499987
 C        -1.518299         0.493441         2.351000
 C        -2.052041         1.808619         2.839591
 C        -0.796561         2.772608         2.667217
 C         0.376392         2.053612         2.018685
 H        -2.178198         4.236754         0.790109
 H        -2.185955         1.028624         0.095951
 H        -1.158567         2.563080        -0.383035
 H         0.737788        -0.476848         0.804676
 H        -2.346845        -0.272520         2.058845
 H        -0.818666        -0.004062         3.185399
 H        -2.792169         1.713647         3.723938
 H        -0.933097         3.582171         3.375816
 H         0.907934         2.706674         1.259549
 H         1.111157         1.659477         2.754950
