19
Iteration:  1369
 O        -2.792655         3.829849         1.635227
 C        -1.782686         2.721749         1.605359
 C        -1.296003         1.969922         0.392838
 C        -0.556850         0.917109         1.282470
 O         0.069952        -0.055862         0.627891
 C        -1.643655         0.470637         2.257722
 C        -2.058060         1.781105         2.799877
 C        -0.784019         2.705415         2.687090
 C         0.310227         1.854820         2.156487
 H        -2.746496         4.574482         0.995881
 H        -2.143718         1.565705        -0.300108
 H        -0.753979         2.634401        -0.312351
 H         0.101783         0.163283        -0.287217
 H        -2.526494         0.073368         1.781821
 H        -1.264278        -0.203163         3.042967
 H        -2.934141         1.861892         3.425576
 H        -0.674456         3.569248         3.295090
 H         0.881530         2.418007         1.353259
 H         1.031842         1.301875         2.741332
