19
Iteration:  1095charge 0 multiplicity 1
 O        -2.693108         3.924490         1.710441
 C        -1.849005         2.801848         1.660307
 C        -1.363393         2.014180         0.378655
 C        -0.591778         0.996033         1.208486
 O         0.133588        -0.133687         0.675229
 C        -1.677247         0.412330         2.272344
 C        -2.116831         1.748633         2.676339
 C        -0.801527         2.680272         2.626026
 C         0.350453         1.858318         2.042436
 H        -3.541378         3.610728         1.302922
 H        -2.212698         1.603231        -0.134342
 H        -0.838152         2.676638        -0.250371
 H         1.026035         0.028237         0.907005
 H        -2.488193        -0.134452         1.769011
 H        -1.231274        -0.295699         3.049468
 H        -2.910980         1.956631         3.344172
 H        -0.623569         3.458888         3.343465
 H         1.148723         2.330464         1.417075
 H         0.892198         1.374841         2.822916
