19
Iteration:  4645
 O        -2.933277         3.725623         1.458994
 C        -1.950072         2.716917         1.723703
 C        -1.393061         1.869824         0.566382
 C        -0.562852         0.896740         1.318823
 O        -0.040124        -0.147781         0.439925
 C        -1.544839         0.518769         2.405215
 C        -1.905529         1.959218         2.924638
 C        -0.617790         2.834450         2.546766
 C         0.376853         1.935076         1.951407
 H        -2.830695         4.507840         2.031107
 H        -2.194957         1.392137         0.056430
 H        -0.887436         2.398016        -0.210146
 H         0.779015        -0.712972         0.746173
 H        -2.357663         0.020252         1.789240
 H        -1.192111        -0.117638         3.205864
 H        -2.372260         2.253772         3.825565
 H        -0.589070         3.706340         3.207649
 H         0.979192         2.391289         1.136995
 H         1.069860         1.536707         2.688758
