19
Iteration:   914
 O        -2.649155         3.875398         1.287022
 C        -1.867929         2.735468         1.629383
 C        -1.344054         2.005794         0.529324
 C        -0.580188         0.917560         1.316951
 O         0.028625         0.080098         0.466187
 C        -1.619560         0.433186         2.244249
 C        -2.055242         1.721700         2.805385
 C        -0.877920         2.560096         2.819132
 C         0.341510         1.847314         2.308043
 H        -2.604843         4.422061         2.095922
 H        -2.081137         1.442995        -0.083488
 H        -0.639718         2.571697        -0.138833
 H         0.416700         0.621965        -0.264019
 H        -2.387804        -0.263801         1.870992
 H        -1.114071        -0.199337         2.952595
 H        -2.781357         1.831398         3.606815
 H        -0.976528         3.453970         3.432889
 H         1.006901         2.415158         1.737919
 H         0.803547         1.160725         3.011424
