19
Iteration:  3349charge 0 multiplicity 1
 O        -2.685573         3.926897         1.565107
 C        -1.945930         2.720022         1.688475
 C        -1.516599         2.007487         0.382643
 C        -0.538248         1.033952         1.225981
 O         0.070856        -0.189354         0.711199
 C        -1.483363         0.442773         2.148618
 C        -2.049124         1.714447         2.810025
 C        -0.809321         2.767981         2.690702
 C         0.324275         1.905831         2.140737
 H        -3.316634         3.732143         0.817886
 H        -2.397659         1.657048        -0.181820
 H        -0.773446         2.784469        -0.163067
 H         0.494641        -0.128603        -0.086825
 H        -2.211965        -0.191372         1.650622
 H        -0.908369        -0.181653         2.937630
 H        -2.513383         1.551130         3.785921
 H        -0.777378         3.616217         3.348170
 H         1.247305         2.380162         1.661140
 H         0.884157         1.271604         2.885245
