19
Iteration:  1004
 O        -2.735976         3.900614         1.556848
 C        -1.920659         2.746209         1.726675
 C        -1.302829         2.100031         0.467070
 C        -0.587264         0.847001         1.272108
 O         0.156163        -0.225578         0.463416
 C        -1.651104         0.358347         2.221474
 C        -2.088881         1.813387         2.774985
 C        -0.779535         2.820356         2.751717
 C         0.365622         1.914319         2.231245
 H        -3.361763         3.609565         0.828275
 H        -1.885944         1.691650        -0.397032
 H        -0.574711         2.827689         0.158631
 H         0.007332         0.069441        -0.524037
 H        -2.576179        -0.089714         1.806950
 H        -1.365636        -0.359007         2.985167
 H        -2.932741         2.057956         3.440924
 H        -0.720545         3.749586         3.341530
 H         1.176914         2.331040         1.665762
 H         0.767084         1.509848         3.145934
