19
Iteration:  3654charge 0 multiplicity 1
 O        -2.762188         3.771231         1.453302
 C        -1.838485         2.745785         1.681172
 C        -1.509762         1.991937         0.487469
 C        -0.515134         0.978760         1.196356
 O         0.005045        -0.147192         0.607547
 C        -1.514190         0.510292         2.280317
 C        -2.012628         1.800881         2.803243
 C        -0.786897         2.730750         2.774004
 C         0.390685         1.922022         2.167104
 H        -2.659898         4.202879         0.596783
 H        -2.319404         1.337932         0.380472
 H        -1.101041         2.644958        -0.273153
 H        -0.003451         0.054398        -0.432147
 H        -2.333080        -0.145863         1.853825
 H        -0.976857         0.053953         3.194722
 H        -2.799801         1.822789         3.545567
 H        -0.648446         3.495335         3.511266
 H         1.014453         2.504310         1.518169
 H         1.052244         1.274310         2.575001
