19
Iteration:  4279charge 0 multiplicity 1
 O        -2.741915         3.911088         1.520578
 C        -1.927950         2.732920         1.641555
 C        -1.511541         1.767149         0.509351
 C        -0.602015         0.893721         1.316586
 O        -0.095000        -0.176541         0.490683
 C        -1.483364         0.483854         2.457578
 C        -1.840614         1.815133         2.989140
 C        -0.721032         2.857723         2.545806
 C         0.358356         1.998731         1.920942
 H        -3.477431         3.599224         0.924399
 H        -2.285798         1.325853        -0.102417
 H        -1.041478         2.448638        -0.227407
 H         0.887777        -0.109999         0.617240
 H        -2.240912        -0.180634         2.042168
 H        -0.974531        -0.194644         3.216373
 H        -2.468623         2.086182         3.884046
 H        -0.509069         3.834425         3.015448
 H         0.923668         2.572894         1.231004
 H         0.983255         1.672290         2.760517
