19
Iteration:  4551charge 0 multiplicity 1
 O        -2.862818         3.740226         1.578637
 C        -1.866201         2.727730         1.693849
 C        -1.511323         1.871327         0.437601
 C        -0.588102         0.954086         1.258007
 O        -0.027753        -0.163067         0.567084
 C        -1.500137         0.497977         2.390494
 C        -1.865020         1.805378         2.911377
 C        -0.715517         2.899131         2.582428
 C         0.351460         1.962726         1.919903
 H        -2.337546         4.517536         1.232919
 H        -2.457912         1.418485         0.047667
 H        -1.059334         2.350890        -0.493385
 H         0.428334        -0.660258         1.228970
 H        -2.376391        -0.020191         2.028553
 H        -0.881780        -0.089012         3.089840
 H        -2.716376         2.130247         3.462840
 H        -0.442349         3.887888         2.995982
 H         1.032000         2.491859         1.187853
 H         1.062876         1.509770         2.677670
