19
Iteration:  4582
 O        -2.741982         3.932270         1.449947
 C        -2.020568         2.684509         1.705069
 C        -1.566112         1.874163         0.476035
 C        -0.476431         0.888441         1.315823
 O        -0.018915        -0.145469         0.424330
 C        -1.431962         0.465652         2.585974
 C        -2.021927         1.765291         2.883961
 C        -0.784424         2.749437         2.570194
 C         0.393785         2.020237         1.922999
 H        -2.188521         4.576082         1.871595
 H        -2.390664         1.203408         0.172492
 H        -1.137819         2.453414        -0.421855
 H         0.561971        -0.788787         0.978262
 H        -2.106723        -0.402420         2.219357
 H        -0.802194         0.093876         3.408304
 H        -2.538303         2.209953         3.707057
 H        -0.628037         3.692127         3.126375
 H         0.724067         2.649543         1.014125
 H         1.235108         1.747073         2.517543
