19
Iteration:  1053
 O        -2.504977         3.920383         1.417884
 C        -1.901629         2.720903         1.684110
 C        -1.477257         1.972299         0.494988
 C        -0.554169         0.914736         1.232296
 O         0.137392        -0.018075         0.449085
 C        -1.627751         0.376342         2.301230
 C        -2.152065         1.708975         2.858711
 C        -0.850169         2.775763         2.763779
 C         0.304377         1.886788         2.200906
 H        -3.449082         3.884419         1.473900
 H        -2.278230         1.454632         0.068967
 H        -0.942470         2.542023        -0.261633
 H         0.826021         0.330594        -0.074571
 H        -2.374241        -0.265788         1.787257
 H        -1.216177        -0.311971         3.084885
 H        -2.917823         1.871105         3.568049
 H        -0.888442         3.569857         3.496494
 H         1.152365         2.536759         1.806561
 H         0.756604         1.084531         2.854144
