19
Iteration:  2364charge 0 multiplicity 1
 O        -2.696437         3.998888         1.587299
 C        -1.965040         2.780519         1.630141
 C        -1.476394         1.855297         0.403243
 C        -0.529164         0.895143         1.251718
 O         0.074201        -0.167512         0.528540
 C        -1.493280         0.441547         2.388576
 C        -2.001476         1.810988         2.773972
 C        -0.806805         2.671950         2.698773
 C         0.321834         2.019395         2.039363
 H        -3.492070         3.799970         1.076435
 H        -2.411481         1.205282         0.111607
 H        -1.229225         2.467659        -0.539892
 H         0.891217        -0.261952         0.926031
 H        -2.266766        -0.226253         2.147509
 H        -0.861195         0.077827         3.221122
 H        -2.798875         1.865681         3.521588
 H        -0.657116         3.483762         3.438998
 H         0.970182         2.585091         1.422459
 H         0.891825         1.406621         2.701208
