19
Iteration:  1078charge 0 multiplicity 1
 O        -2.677209         4.105595         1.626631
 C        -2.024364         2.775746         1.558929
 C        -1.425052         1.922840         0.399990
 C        -0.538930         0.835726         1.328990
 O         0.204013        -0.076902         0.560234
 C        -1.666227         0.399474         2.217444
 C        -2.034841         1.766464         2.807733
 C        -0.816244         2.653990         2.712643
 C         0.313051         1.835929         2.112384
 H        -3.650661         4.034454         1.571918
 H        -2.121805         1.370994        -0.294613
 H        -0.623233         2.467956        -0.229155
 H         1.102208         0.122871         0.514419
 H        -2.375202        -0.223726         1.620892
 H        -1.301605        -0.257874         2.981339
 H        -2.692426         1.949290         3.686677
 H        -0.701865         3.518902         3.403345
 H         0.900691         2.454633         1.422102
 H         1.021680         1.226244         2.790800
