19
Iteration:  3227
 O        -2.738053         3.891746         1.658847
 C        -1.811389         2.824658         1.612816
 C        -1.348179         1.874402         0.434069
 C        -0.536601         0.911431         1.270916
 O         0.126519        -0.105343         0.586027
 C        -1.633710         0.477828         2.336870
 C        -2.055573         1.783103         2.726896
 C        -0.848748         2.694115         2.719545
 C         0.309278         1.945484         2.054394
 H        -3.610554         3.889495         1.210969
 H        -2.215694         1.333334         0.047058
 H        -0.728234         2.187411        -0.504613
 H         0.524384         0.157361        -0.280637
 H        -2.421578        -0.137209         1.908497
 H        -1.267583        -0.159400         3.178452
 H        -2.994716         2.020011         3.221605
 H        -0.668468         3.393598         3.542523
 H         0.887858         2.542521         1.354977
 H         1.058513         1.459300         2.660844
