19
Iteration:   366
 O        -2.591003         4.087919         1.533842
 C        -1.961906         2.744514         1.649771
 C        -1.293780         1.986281         0.465230
 C        -0.494164         0.913393         1.137210
 O         0.262165        -0.094582         0.462411
 C        -1.674801         0.368359         2.222069
 C        -2.107397         1.743690         2.809536
 C        -0.970088         2.595463         2.831869
 C         0.184119         1.869351         2.273460
 H        -3.519879         3.888282         1.393030
 H        -2.066869         1.496852        -0.156931
 H        -0.689044         2.688946        -0.234401
 H         0.668257         0.357918        -0.339973
 H        -2.508808        -0.150132         1.754325
 H        -1.240368        -0.365255         2.920351
 H        -2.875209         1.756105         3.597407
 H        -0.663214         3.319149         3.606057
 H         0.938944         2.477319         1.839407
 H         0.716959         1.387802         3.122776
