19
Iteration:   991charge 0 multiplicity 1
 O        -2.716595         3.837580         1.676419
 C        -1.883021         2.758106         1.597678
 C        -1.286682         2.083380         0.440361
 C        -0.536594         0.911631         1.226341
 O         0.140049        -0.155205         0.613136
 C        -1.711996         0.481123         2.199062
 C        -2.032099         1.770454         2.794707
 C        -0.824760         2.756030         2.597951
 C         0.304011         1.856544         2.249782
 H        -3.467508         3.787745         1.106275
 H        -2.079901         1.779974        -0.322802
 H        -0.515330         2.715463        -0.114336
 H         0.113326        -0.126350        -0.308023
 H        -2.523644         0.065208         1.556179
 H        -1.310571        -0.256027         2.854000
 H        -2.790318         1.827147         3.524538
 H        -0.676122         3.587956         3.275597
 H         0.968342         2.431145         1.652564
 H         0.841041         1.259389         2.997764
