19
Iteration:   765charge 0 multiplicity 1
 O        -2.672997         3.951241         1.406538
 C        -1.845085         2.814573         1.669505
 C        -1.271944         1.987323         0.466675
 C        -0.483135         0.891443         1.306687
 O         0.099011        -0.011397         0.397324
 C        -1.667745         0.390141         2.165578
 C        -2.139840         1.744678         2.797484
 C        -0.881275         2.608638         2.872043
 C         0.303626         1.820928         2.381317
 H        -3.604524         3.633326         1.359912
 H        -2.134889         1.803393        -0.231924
 H        -0.500879         2.677076        -0.044391
 H         0.436497         0.625490        -0.343351
 H        -2.451274        -0.143339         1.608815
 H        -1.370871        -0.382241         2.943662
 H        -2.839425         1.801018         3.660474
 H        -0.807323         3.452678         3.571542
 H         0.980741         2.495019         1.733028
 H         0.980487         1.306670         3.079127
