19
Iteration:  3125charge 0 multiplicity 1
 O        -2.787008         4.015836         1.542945
 C        -1.936304         2.774014         1.608338
 C        -1.401176         1.983854         0.387450
 C        -0.548705         0.885293         1.273238
 O         0.149745        -0.037760         0.563473
 C        -1.602896         0.431950         2.243214
 C        -1.961148         1.723016         2.805994
 C        -0.832348         2.760945         2.634998
 C         0.396566         1.790280         2.201736
 H        -3.662416         3.761944         1.829724
 H        -2.055954         1.418232        -0.386167
 H        -0.677478         2.655973        -0.091199
 H         0.116968        -0.956791         0.949689
 H        -2.431204        -0.061616         1.786468
 H        -1.027526        -0.176083         2.862573
 H        -2.732311         1.708532         3.552764
 H        -0.757812         3.604388         3.318024
 H         1.152003         2.434731         1.717525
 H         0.584398         1.181048         3.004437
