19
Iteration:  1159charge 0 multiplicity 1
 O        -2.650115         3.862802         1.351930
 C        -1.839703         2.736871         1.662784
 C        -1.420195         1.954549         0.547107
 C        -0.610137         0.901337         1.328162
 O         0.036228         0.034323         0.383880
 C        -1.588555         0.402734         2.410215
 C        -2.043232         1.753840         2.825725
 C        -0.785487         2.762702         2.772177
 C         0.323826         1.827497         2.188557
 H        -3.593911         3.826033         1.439124
 H        -2.237034         1.477328        -0.131913
 H        -0.824683         2.577100        -0.135876
 H         0.707500         0.575749        -0.004193
 H        -2.416181        -0.075711         1.923132
 H        -1.049018        -0.314621         3.080442
 H        -2.825280         1.873846         3.531051
 H        -0.636371         3.587304         3.466082
 H         1.076100         2.225499         1.460818
 H         0.859658         1.219851         2.889510
