19
Iteration:  2806charge 0 multiplicity 1
 O        -2.721916         3.976709         1.369091
 C        -1.940098         2.770342         1.727077
 C        -1.433468         1.959635         0.492271
 C        -0.648073         0.911778         1.257516
 O         0.187407         0.004158         0.420065
 C        -1.540377         0.440893         2.366216
 C        -2.042579         1.763252         2.866540
 C        -0.743043         2.739056         2.717740
 C         0.284856         1.755374         2.143299
 H        -3.481066         3.520291         1.007126
 H        -2.244813         1.564663        -0.065139
 H        -0.862289         2.558463        -0.123404
 H         0.519536        -0.790002         0.879874
 H        -2.462681        -0.038711         2.107557
 H        -0.903576         0.121021         3.238467
 H        -2.742408         1.812818         3.681200
 H        -0.664507         3.563507         3.467747
 H         1.155616         2.346040         1.574783
 H         0.670219         0.975479         2.858244
