19
Iteration:  2964
 O        -2.700606         3.902551         1.525482
 C        -1.952958         2.686557         1.636646
 C        -1.354611         2.037458         0.346453
 C        -0.571516         0.973623         1.222385
 O         0.014951        -0.033672         0.554602
 C        -1.492958         0.408741         2.272704
 C        -1.999511         1.797071         2.852050
 C        -0.836489         2.734599         2.698103
 C         0.313407         1.795109         2.147108
 H        -3.603637         3.720635         1.251232
 H        -2.020986         1.621538        -0.327468
 H        -0.580260         2.805008         0.073612
 H         0.474637        -0.503283         1.360316
 H        -2.238707        -0.214985         1.715126
 H        -0.984272        -0.224684         3.004743
 H        -2.717300         2.074174         3.593164
 H        -0.678133         3.604445         3.374481
 H         1.111213         2.307680         1.660750
 H         0.617006         1.114516         3.011839
