19
Iteration:  2572charge 0 multiplicity 1
 O        -2.770918         3.805346         1.405403
 C        -1.813506         2.784819         1.666863
 C        -1.315480         1.958896         0.432787
 C        -0.615805         0.962284         1.229516
 O         0.083498         0.018936         0.544319
 C        -1.634899         0.495841         2.361544
 C        -2.038604         1.851726         2.822080
 C        -0.726803         2.689250         2.770747
 C         0.281766         1.817981         2.108415
 H        -3.623904         3.556347         1.853639
 H        -2.115954         1.523516        -0.258610
 H        -0.618541         2.509438        -0.147846
 H        -0.309334        -0.865029         0.262822
 H        -2.273191        -0.357879         2.035058
 H        -0.871940         0.116578         3.151550
 H        -2.703452         1.913217         3.643137
 H        -0.368187         3.471681         3.449435
 H         0.925554         2.506124         1.464169
 H         0.993497         1.118005         2.753846
