19
Iteration:  3947
 O        -2.852457         3.855599         1.439053
 C        -1.833247         2.828563         1.689907
 C        -1.430074         2.028237         0.493007
 C        -0.520163         0.908180         1.222505
 O         0.063513        -0.192683         0.578549
 C        -1.520967         0.426421         2.344655
 C        -2.027322         1.744341         2.816155
 C        -0.804562         2.777252         2.685684
 C         0.413455         1.958882         1.984456
 H        -3.103449         4.202922         2.291568
 H        -2.292631         1.699827        -0.138345
 H        -0.869249         2.660959        -0.217321
 H        -0.174580        -0.948873         1.175391
 H        -2.208944        -0.285852         1.834026
 H        -0.792262        -0.019313         3.022726
 H        -2.748090         1.966386         3.558315
 H        -0.691825         3.506665         3.499692
 H         0.910602         2.404232         1.154939
 H         0.942904         1.542860         2.802689
