19
Iteration:  2080charge 0 multiplicity 1
 O        -2.657610         3.920715         1.408380
 C        -1.915544         2.772371         1.631568
 C        -1.495151         1.871747         0.479318
 C        -0.522539         0.928536         1.285768
 O         0.107994        -0.017002         0.456601
 C        -1.444141         0.399631         2.388616
 C        -2.053383         1.820807         2.839647
 C        -0.845218         2.741660         2.844029
 C         0.310462         1.902668         2.107543
 H        -3.504703         3.609759         1.070890
 H        -2.301971         1.296951         0.114699
 H        -1.020087         2.376570        -0.345140
 H        -0.414779        -0.116550        -0.291102
 H        -2.257177        -0.257987         2.106187
 H        -0.949804        -0.087302         3.263699
 H        -2.942627         1.775426         3.523651
 H        -0.597539         3.504882         3.604384
 H         1.160537         2.409772         1.607583
 H         0.892930         1.189833         2.698518
