19
Iteration:  1771
 O        -2.729994         3.968761         1.415824
 C        -1.944010         2.808821         1.623930
 C        -1.392913         2.002482         0.525552
 C        -0.570412         0.917171         1.311203
 O         0.059815        -0.085992         0.542899
 C        -1.552921         0.332464         2.278275
 C        -2.019154         1.699957         2.796991
 C        -0.872387         2.677994         2.692247
 C         0.323987         1.896484         2.124368
 H        -2.437955         4.760554         1.893169
 H        -2.222575         1.436587        -0.016138
 H        -0.884105         2.713822        -0.161914
 H         0.966749        -0.212005         0.756906
 H        -2.269791        -0.183129         1.739479
 H        -1.036508        -0.296031         3.014823
 H        -2.445919         1.897451         3.769935
 H        -0.734381         3.481952         3.385421
 H         0.918552         2.257239         1.292494
 H         0.866766         1.393344         2.859476
