19
Iteration:  3034charge 0 multiplicity 1
 O        -2.592731         3.919109         1.411863
 C        -1.995523         2.701673         1.641502
 C        -1.455522         2.005063         0.428052
 C        -0.526732         0.982874         1.232155
 O         0.130881        -0.014276         0.415529
 C        -1.566423         0.382120         2.371539
 C        -2.070200         1.808694         2.912163
 C        -0.845382         2.685440         2.707286
 C         0.291462         1.831222         2.214143
 H        -3.543871         4.073237         1.328754
 H        -2.295439         1.570928        -0.216663
 H        -0.741533         2.670210        -0.012669
 H         0.686839        -0.650523         1.023277
 H        -2.362074        -0.180387         1.935213
 H        -0.946973        -0.209359         2.941051
 H        -2.733374         1.832967         3.804186
 H        -0.690583         3.532552         3.362051
 H         1.072792         2.425283         1.762742
 H         0.642501         1.099263         2.852049
