19
Iteration:  4663
 O        -2.959403         3.752441         1.484873
 C        -1.840353         2.846020         1.595478
 C        -1.464486         1.980237         0.409033
 C        -0.574135         0.898553         1.240568
 O        -0.108701        -0.197519         0.529099
 C        -1.463888         0.466410         2.523132
 C        -1.839954         1.798484         2.860139
 C        -0.761832         2.819683         2.653991
 C         0.430406         1.963108         1.950596
 H        -2.863154         4.442770         2.181484
 H        -2.258080         1.525389        -0.272330
 H        -0.695736         2.437800        -0.266998
 H         0.650464        -0.563972         1.148505
 H        -2.300851        -0.147717         2.342184
 H        -0.814113        -0.120285         3.225084
 H        -2.687815         2.033828         3.522228
 H        -0.316550         3.568334         3.283669
 H         0.971649         2.548811         1.231177
 H         1.231714         1.520111         2.687173
