19
Iteration:  1915charge 0 multiplicity 1
 O        -2.710680         3.964340         1.454430
 C        -1.958051         2.719863         1.679994
 C        -1.454575         1.947929         0.493973
 C        -0.583669         0.917422         1.258318
 O         0.075829        -0.078152         0.369278
 C        -1.518313         0.434047         2.352914
 C        -2.029406         1.793314         2.902586
 C        -0.780729         2.739297         2.686022
 C         0.295681         1.851034         2.206157
 H        -3.162227         3.874963         0.562195
 H        -2.270349         1.269482         0.032081
 H        -0.848990         2.523114        -0.166675
 H         1.066574        -0.066349         0.624499
 H        -2.196365        -0.335716         2.103347
 H        -0.918800         0.049124         3.211723
 H        -2.669760         1.858541         3.806252
 H        -0.690732         3.704800         3.228794
 H         1.116446         2.312570         1.637939
 H         0.749216         1.200278         2.926941
