19
Iteration:  3678charge 0 multiplicity 1
 O        -2.881791         3.782494         1.516248
 C        -1.842627         2.790727         1.613431
 C        -1.383158         1.942743         0.412430
 C        -0.575681         0.904766         1.279401
 O         0.051062        -0.118591         0.544874
 C        -1.607657         0.403169         2.377651
 C        -1.939124         1.872913         2.877544
 C        -0.745377         2.745217         2.659315
 C         0.328655         1.894441         2.131489
 H        -2.585735         4.717766         1.340652
 H        -2.143537         1.329023        -0.045881
 H        -0.603835         2.467130        -0.213567
 H         0.246673         0.320514        -0.313753
 H        -2.419873        -0.086539         1.841160
 H        -1.043136        -0.301326         3.083064
 H        -2.780271         2.211623         3.546645
 H        -0.536915         3.615921         3.315229
 H         1.096826         2.471233         1.502481
 H         0.907064         1.373694         2.867756
