19
Iteration:  4726charge 0 multiplicity 1
 O        -2.764457         3.802020         1.365705
 C        -1.873501         2.822905         1.710045
 C        -1.634430         1.717212         0.605238
 C        -0.610267         0.861738         1.336673
 O         0.153307         0.101397         0.400741
 C        -1.635779         0.348684         2.481059
 C        -1.872842         1.844818         2.935601
 C        -0.655902         2.862168         2.548223
 C         0.293701         1.914854         1.975794
 H        -2.345334         4.675308         1.619171
 H        -2.560658         1.127729         0.358822
 H        -1.109470         2.158437        -0.280942
 H         0.376580        -0.876494         0.704379
 H        -2.638333         0.007047         2.138439
 H        -1.208395        -0.286026         3.317350
 H        -2.489611         1.994065         3.872524
 H        -0.499031         3.621108         3.299112
 H         0.704567         2.350163         1.048794
 H         1.091300         1.709734         2.647437
