19
Iteration:  2064charge 0 multiplicity 1
 O        -2.615193         3.876033         1.312785
 C        -1.868679         2.700320         1.727514
 C        -1.492883         1.941638         0.504664
 C        -0.644539         1.019858         1.237590
 O         0.049729         0.020272         0.472739
 C        -1.462822         0.414577         2.419367
 C        -2.017876         1.719790         2.888273
 C        -0.816058         2.673271         2.716403
 C         0.339579         1.890604         2.218109
 H        -3.451162         3.597314         0.834402
 H        -2.457466         1.506486         0.063362
 H        -1.025758         2.599645        -0.274448
 H        -0.341272        -0.015027        -0.364521
 H        -2.057450        -0.474432         2.069711
 H        -0.703964        -0.028291         3.077918
 H        -2.779907         1.925718         3.629166
 H        -0.793282         3.572022         3.301504
 H         0.921918         2.602225         1.640784
 H         0.978052         1.455118         3.022937
