19
Iteration:  4622charge 0 multiplicity 1
 O        -2.809110         3.720539         1.370965
 C        -1.891613         2.705254         1.641207
 C        -1.622802         1.846667         0.441658
 C        -0.616213         0.946000         1.309061
 O         0.021931         0.035917         0.444827
 C        -1.593407         0.415134         2.496319
 C        -1.779139         1.912710         3.027250
 C        -0.648269         2.814187         2.571898
 C         0.377035         1.892758         2.011071
 H        -2.567285         4.552443         1.854372
 H        -2.475723         1.206190         0.250109
 H        -1.489966         2.392329        -0.461728
 H         0.671400        -0.555021         0.804023
 H        -2.583450         0.011964         2.197290
 H        -1.107411        -0.193224         3.254004
 H        -2.498579         1.961947         3.820135
 H        -0.424181         3.716282         3.126506
 H         1.095883         2.333399         1.337674
 H         0.937765         1.476994         2.881551
