19
Iteration:  1448charge 0 multiplicity 1
 O        -2.710225         3.900052         1.587820
 C        -1.874891         2.815135         1.658920
 C        -1.442722         1.984876         0.430886
 C        -0.602373         0.821886         1.322681
 O         0.260499        -0.035692         0.528249
 C        -1.674681         0.407037         2.322441
 C        -2.082376         1.827043         2.761279
 C        -0.846504         2.675208         2.657205
 C         0.321925         1.892190         2.054753
 H        -2.169214         4.726401         1.559643
 H        -2.369703         1.464527         0.063032
 H        -0.736622         2.476924        -0.314353
 H        -0.117340        -0.928764         0.456384
 H        -2.426222        -0.288446         1.897305
 H        -1.220209        -0.125530         3.141721
 H        -2.970910         2.010100         3.397051
 H        -0.621938         3.396471         3.477466
 H         0.935025         2.434624         1.352508
 H         0.989796         1.327043         2.725998
