19
Iteration:  2817charge 0 multiplicity 1
 O        -2.726667         3.900794         1.389855
 C        -1.946835         2.743494         1.670979
 C        -1.422009         1.957062         0.376551
 C        -0.576406         0.923397         1.211460
 O         0.111650         0.012010         0.429455
 C        -1.593753         0.452466         2.377275
 C        -1.945535         1.863955         2.920481
 C        -0.766350         2.695109         2.756843
 C         0.270964         1.812781         2.201312
 H        -3.659921         3.662266         1.158009
 H        -2.127991         1.528037        -0.287499
 H        -0.740196         2.509338        -0.171908
 H         0.437846        -0.584734         1.048638
 H        -2.377372        -0.181888         1.978122
 H        -1.130020        -0.331027         3.063788
 H        -2.636573         1.919649         3.750131
 H        -0.451798         3.379424         3.573002
 H         1.203265         2.338710         1.686493
 H         0.757393         1.188058         3.013432
