19
Iteration:   149
 O        -2.689669         3.766398         1.428209
 C        -1.898869         2.707307         1.701776
 C        -1.312501         2.121706         0.522308
 C        -0.601113         0.976634         1.251853
 O         0.052836        -0.042979         0.461543
 C        -1.592875         0.414338         2.255086
 C        -2.008185         1.771685         2.867799
 C        -0.820816         2.717253         2.756996
 C         0.320335         1.846124         2.198613
 H        -3.656344         3.525754         1.434258
 H        -2.060499         1.639574        -0.175619
 H        -0.613738         2.841464         0.027795
 H         0.305192         0.366318        -0.411939
 H        -2.525916         0.027294         1.710558
 H        -1.168592        -0.417036         2.868280
 H        -2.788335         2.004614         3.576640
 H        -0.561135         3.502138         3.440446
 H         1.169115         2.389927         1.670244
 H         0.735888         1.281501         3.082354
