19
Iteration:  4059
 O        -2.760660         3.874566         1.532135
 C        -1.946662         2.677897         1.641158
 C        -1.454861         1.848711         0.455418
 C        -0.568680         0.928157         1.239866
 O        -0.030983        -0.144664         0.507203
 C        -1.493367         0.427660         2.414952
 C        -1.977122         1.790888         2.895806
 C        -0.841745         2.805860         2.624389
 C         0.387779         2.017323         2.040899
 H        -2.200351         4.645569         1.326538
 H        -2.337791         1.491296        -0.093903
 H        -0.760384         2.321541        -0.306266
 H         0.931876        -0.274568         0.847069
 H        -2.276382        -0.193896         1.863191
 H        -0.931825        -0.238246         3.180745
 H        -2.729375         2.099473         3.642474
 H        -0.662033         3.755679         3.132812
 H         0.968839         2.621947         1.299781
 H         1.059656         1.527573         2.839168
