19
Iteration:  4796charge 0 multiplicity 1
 O        -2.901192         3.694987         1.677168
 C        -1.880493         2.729148         1.593228
 C        -1.382609         1.940249         0.416934
 C        -0.574096         0.931650         1.321366
 O        -0.098242        -0.182879         0.567383
 C        -1.588288         0.490604         2.378823
 C        -1.954580         1.842673         2.819413
 C        -0.649595         2.837123         2.589539
 C         0.449596         2.032973         1.980742
 H        -3.022156         4.147199         0.794589
 H        -2.089181         1.293235        -0.149735
 H        -0.800550         2.626759        -0.231158
 H         0.796797        -0.521191         0.964768
 H        -2.319348        -0.056115         1.788504
 H        -1.227258        -0.123573         3.231100
 H        -2.595182         2.141338         3.682609
 H        -0.317386         3.691307         3.244347
 H         0.787395         2.631307         1.152955
 H         1.398722         1.713944         2.527693
