19
Iteration:   604charge 0 multiplicity 1
 O        -2.764653         3.857360         1.681658
 C        -1.817198         2.791537         1.694884
 C        -1.322811         2.163084         0.361785
 C        -0.497187         0.921255         1.223707
 O         0.212226        -0.153646         0.631482
 C        -1.722510         0.481210         2.020327
 C        -2.080894         1.728777         2.673481
 C        -0.877219         2.584151         2.818384
 C         0.248708         1.837002         2.249128
 H        -2.735902         4.580216         1.070209
 H        -2.089764         1.801650        -0.243580
 H        -0.729723         2.848246        -0.211608
 H         1.046065         0.151973         0.242613
 H        -2.543281         0.016624         1.498262
 H        -1.470926        -0.334752         2.764206
 H        -3.068419         1.995377         3.140167
 H        -0.920099         3.351710         3.604749
 H         1.053686         2.379507         1.717409
 H         0.802230         1.256122         3.029797
