19
Iteration:  1365
 O        -2.772212         3.813368         1.660823
 C        -1.822683         2.727555         1.606125
 C        -1.319974         1.959416         0.380006
 C        -0.554424         0.938982         1.286175
 O         0.095763        -0.087966         0.637887
 C        -1.672645         0.467587         2.231230
 C        -2.070650         1.798618         2.794973
 C        -0.782957         2.714666         2.695565
 C         0.318504         1.879057         2.132767
 H        -2.528575         4.536032         1.038334
 H        -2.128861         1.572523        -0.233755
 H        -0.790517         2.615222        -0.290981
 H         0.217476         0.141266        -0.348241
 H        -2.483493        -0.052651         1.675723
 H        -1.287287        -0.206835         3.035890
 H        -2.886913         1.976202         3.542474
 H        -0.714309         3.664034         3.254940
 H         0.958430         2.491222         1.424932
 H         0.998971         1.217239         2.727371
