19
Iteration:    66
 O        -2.753604         3.843360         1.555045
 C        -1.878327         2.753198         1.684077
 C        -1.373730         2.021531         0.452794
 C        -0.551321         0.927916         1.237421
 O         0.202930        -0.008621         0.505865
 C        -1.642933         0.422247         2.297372
 C        -2.049155         1.751558         2.836513
 C        -0.768488         2.717123         2.758442
 C         0.356895         1.885669         2.057858
 H        -3.604395         3.524788         1.200954
 H        -2.198221         1.528370        -0.065429
 H        -0.917794         2.696749        -0.252121
 H        -0.469540        -0.691097         0.224974
 H        -2.517214        -0.021641         1.795631
 H        -1.327959        -0.187863         3.150881
 H        -2.806468         1.936411         3.608693
 H        -0.672125         3.532449         3.454632
 H         0.866686         2.576458         1.393057
 H         1.032048         1.403224         2.735050
