19
Iteration:  1513charge 0 multiplicity 1
 O        -2.829409         3.785097         1.482909
 C        -1.871984         2.787158         1.698059
 C        -1.364834         1.968260         0.500916
 C        -0.554074         0.875232         1.253746
 O         0.176700        -0.066460         0.483081
 C        -1.698439         0.507554         2.299487
 C        -2.094194         1.879543         2.866806
 C        -0.730762         2.683503         2.777412
 C         0.404816         1.831212         2.094791
 H        -2.435157         4.547115         1.046119
 H        -2.228768         1.675247        -0.189483
 H        -0.737226         2.520749        -0.274851
 H        -0.410700        -0.536539        -0.067752
 H        -2.466814        -0.069352         1.746104
 H        -1.311027         0.038473         3.191440
 H        -2.911642         1.995017         3.617363
 H        -0.560726         3.523437         3.459558
 H         1.007581         2.456614         1.376413
 H         1.087871         1.355840         2.861227
