19
Iteration:  1145
 O        -2.738422         3.893582         1.390158
 C        -1.965150         2.767623         1.709005
 C        -1.328526         1.996275         0.589018
 C        -0.503468         0.918167         1.352358
 O        -0.050315        -0.013448         0.421597
 C        -1.589146         0.369933         2.278399
 C        -2.023916         1.837500         2.812267
 C        -0.778464         2.713703         2.643922
 C         0.390086         1.784164         2.191689
 H        -3.626796         3.451526         1.376723
 H        -2.106691         1.505588        -0.138663
 H        -0.562716         2.615414         0.037923
 H         0.936993         0.197006         0.180335
 H        -2.335053        -0.246778         1.728134
 H        -1.369097        -0.146111         3.198677
 H        -2.513235         1.998147         3.784739
 H        -0.699570         3.467286         3.403935
 H         1.063762         2.434817         1.594886
 H         1.083680         1.395178         3.029536
