19
Iteration:  2074charge 0 multiplicity 1
 O        -2.636537         3.894057         1.363634
 C        -1.905673         2.765626         1.643505
 C        -1.530563         1.899376         0.498730
 C        -0.553388         0.987724         1.258976
 O         0.087889        -0.012194         0.456669
 C        -1.453425         0.420794         2.417177
 C        -2.038972         1.726387         2.857806
 C        -0.807182         2.759170         2.866804
 C         0.323267         1.878861         2.147067
 H        -3.537989         3.690151         0.957115
 H        -2.404359         1.199964         0.021326
 H        -0.906324         2.418625        -0.348413
 H        -0.436291        -0.080759        -0.372686
 H        -2.155004        -0.380126         2.027466
 H        -0.727544         0.036831         3.145037
 H        -2.956091         1.968109         3.377927
 H        -0.695520         3.590694         3.551212
 H         1.024575         2.446838         1.518879
 H         0.848984         1.151680         2.831344
