19
Iteration:  1910
 O        -2.728155         3.980849         1.485928
 C        -1.963213         2.759515         1.703693
 C        -1.443243         1.909916         0.505463
 C        -0.547945         0.885278         1.232077
 O         0.098212        -0.086990         0.426060
 C        -1.512239         0.405164         2.407832
 C        -2.053279         1.791009         2.861248
 C        -0.841662         2.770641         2.656234
 C         0.329316         1.832191         2.158740
 H        -3.154426         4.040421         0.641988
 H        -2.213474         1.503254        -0.106209
 H        -0.832805         2.566309        -0.187343
 H         1.075636        -0.041236         0.338295
 H        -2.360785        -0.214544         1.880837
 H        -1.012665        -0.119412         3.226425
 H        -2.575823         1.951385         3.803912
 H        -0.662927         3.697663         3.212892
 H         1.058731         2.433506         1.585869
 H         0.813804         1.037876         2.820676
