19
Iteration:  4861
 O        -2.703825         3.859579         1.422376
 C        -1.978712         2.680683         1.610435
 C        -1.519796         1.696037         0.483860
 C        -0.526017         0.968764         1.349947
 O        -0.023276         0.021325         0.345489
 C        -1.449280         0.472648         2.555164
 C        -2.009616         1.878517         2.935656
 C        -0.770280         2.711188         2.608694
 C         0.326421         1.992233         2.031844
 H        -2.188150         4.540473         1.857000
 H        -2.374207         1.026416         0.192929
 H        -1.007070         2.096496        -0.436262
 H         0.539366        -0.617024         0.819676
 H        -2.163520        -0.173053         2.069461
 H        -0.875585        -0.057904         3.378372
 H        -2.730548         1.922104         3.827996
 H        -0.541062         3.658166         3.164881
 H         0.716716         2.633119         1.319304
 H         1.050527         1.479670         2.712150
