19
Iteration:  1539charge 0 multiplicity 1
 O        -2.827462         3.744683         1.324982
 C        -1.863900         2.805827         1.631139
 C        -1.368799         2.030957         0.517904
 C        -0.646113         0.888526         1.295355
 O         0.090252         0.124089         0.369849
 C        -1.641111         0.381761         2.457821
 C        -1.957980         1.854464         2.885482
 C        -0.661265         2.704130         2.742569
 C         0.336265         1.728848         2.273105
 H        -2.582080         4.267139         0.556544
 H        -2.142113         1.706431        -0.137254
 H        -0.618682         2.550614        -0.183314
 H        -0.545056        -0.193130        -0.194148
 H        -2.548926        -0.155469         2.108243
 H        -1.205077        -0.095740         3.337307
 H        -2.744329         1.911577         3.625946
 H        -0.393146         3.537028         3.395554
 H         1.158258         2.146807         1.777660
 H         0.725985         1.092001         3.064101
