19
Iteration:  1694
 O        -2.780807         3.832330         1.391498
 C        -1.886370         2.797072         1.735327
 C        -1.359853         2.062537         0.532398
 C        -0.576276         0.898889         1.259588
 O         0.107813        -0.092500         0.467369
 C        -1.597346         0.481398         2.282616
 C        -2.028824         1.809651         2.932456
 C        -0.849840         2.700403         2.734762
 C         0.379752         1.776190         2.189296
 H        -2.736513         4.034817         0.422318
 H        -2.037061         1.625939        -0.218454
 H        -0.569372         2.622292        -0.014691
 H        -0.356420         0.073594        -0.472335
 H        -2.304636        -0.027577         1.683122
 H        -1.243114        -0.218765         3.048145
 H        -2.626714         1.956118         3.843956
 H        -0.622731         3.480426         3.428941
 H         1.066724         2.514217         1.764991
 H         0.895878         1.184461         2.892529
