19
Iteration:  2753charge 0 multiplicity 1
 O        -2.571596         3.916050         1.565990
 C        -1.975257         2.696220         1.666733
 C        -1.406102         1.965483         0.420571
 C        -0.532816         0.978217         1.262625
 O         0.078048        -0.152470         0.523404
 C        -1.528091         0.403369         2.241316
 C        -2.094752         1.807752         2.888236
 C        -0.849222         2.752888         2.643015
 C         0.281791         1.955693         2.096546
 H        -3.459186         3.724364         1.248879
 H        -2.222199         1.420859        -0.052805
 H        -0.804565         2.657422        -0.297323
 H         0.546217        -0.723907         1.139063
 H        -2.326595        -0.183737         1.744035
 H        -1.162707        -0.325987         2.986505
 H        -2.849173         1.973829         3.656078
 H        -0.723544         3.681831         3.244946
 H         0.896944         2.692594         1.509975
 H         0.935173         1.552269         2.871226
