19
Iteration:  4742
 O        -2.775160         3.740792         1.397206
 C        -1.912771         2.680067         1.663457
 C        -1.620845         1.838607         0.542777
 C        -0.662206         0.920860         1.273070
 O         0.113651         0.089190         0.435595
 C        -1.503987         0.514843         2.518001
 C        -1.941659         1.893488         2.956494
 C        -0.702022         2.754170         2.640845
 C         0.366523         1.853510         1.939143
 H        -2.232086         4.563817         1.314828
 H        -2.560400         1.337841         0.284570
 H        -1.249313         2.330870        -0.351703
 H         0.364073        -0.778122         0.906596
 H        -2.290140        -0.131491         2.150898
 H        -0.906869         0.011049         3.285068
 H        -2.683835         2.194960         3.677120
 H        -0.409189         3.675052         3.191444
 H         1.082231         2.333821         1.260474
 H         0.862909         1.117915         2.653705
