19
Iteration:  3984charge 0 multiplicity 1
 O        -2.757053         3.796625         1.482768
 C        -1.926043         2.726133         1.615112
 C        -1.445151         1.862361         0.440219
 C        -0.589455         0.960761         1.287570
 O         0.098682        -0.005880         0.455010
 C        -1.592943         0.509847         2.375984
 C        -1.972818         1.899615         2.950854
 C        -0.752456         2.774900         2.582382
 C         0.410351         1.863253         2.124529
 H        -3.605808         3.535637         1.898195
 H        -2.117791         1.232234        -0.119918
 H        -0.900828         2.597095        -0.173927
 H         0.029495        -0.884723         0.697539
 H        -2.456087        -0.026141         2.020885
 H        -1.254598        -0.185475         3.088662
 H        -2.754142         2.255686         3.691840
 H        -0.615639         3.728541         3.084856
 H         1.302257         2.134695         1.546563
 H         1.008378         1.206963         2.844439
