19
Iteration:   618charge 0 multiplicity 1
 O        -2.819374         3.915541         1.669326
 C        -1.841600         2.881091         1.606831
 C        -1.226593         2.053368         0.469626
 C        -0.560191         0.970528         1.274956
 O         0.159531        -0.059283         0.565613
 C        -1.711271         0.351171         2.036920
 C        -2.153332         1.746365         2.645932
 C        -0.850435         2.623676         2.837366
 C         0.322046         1.761011         2.265835
 H        -2.589941         4.241217         0.758643
 H        -2.045570         1.603488        -0.099433
 H        -0.548218         2.562744        -0.201081
 H         1.039586         0.278602         0.367409
 H        -2.454177        -0.004555         1.263087
 H        -1.434855        -0.384331         2.787094
 H        -2.838065         1.752759         3.500003
 H        -0.631047         3.335852         3.646317
 H         0.990692         2.507978         1.743807
 H         0.991699         1.159174         2.946518
