19
Iteration:  1699charge 0 multiplicity 1
 O        -2.813038         3.887411         1.424701
 C        -1.919873         2.789110         1.716151
 C        -1.355209         2.049742         0.536539
 C        -0.524516         0.911816         1.285609
 O         0.109900        -0.122994         0.474339
 C        -1.623550         0.422560         2.235880
 C        -1.987594         1.807348         2.895600
 C        -0.809558         2.746982         2.744183
 C         0.366787         1.782086         2.191037
 H        -2.693865         4.017463         0.481698
 H        -2.114007         1.545669        -0.111870
 H        -0.673708         2.601856        -0.119572
 H        -0.229529         0.031692        -0.356623
 H        -2.457284        -0.062603         1.622463
 H        -1.211885        -0.275565         3.029123
 H        -2.596344         2.001467         3.767420
 H        -0.774209         3.584298         3.478671
 H         1.088069         2.445226         1.648433
 H         0.829854         1.162286         3.033278
