19
Iteration:  3201
 O        -2.683040         3.901213         1.513236
 C        -1.943818         2.725448         1.686637
 C        -1.512336         1.973089         0.430839
 C        -0.579088         0.931460         1.239231
 O         0.204512        -0.051101         0.591910
 C        -1.582548         0.451312         2.283887
 C        -2.031468         1.751752         2.867491
 C        -0.799275         2.772077         2.619176
 C         0.367452         1.837872         2.213980
 H        -3.487743         3.944075         0.958314
 H        -2.381497         1.523163        -0.177009
 H        -0.873848         2.512108        -0.258153
 H         0.133177        -0.074422        -0.410842
 H        -2.421452        -0.072607         1.837531
 H        -1.105103        -0.244747         2.909846
 H        -2.738201         1.921038         3.690713
 H        -0.771202         3.687502         3.200379
 H         1.272588         2.160564         1.548375
 H         0.686724         1.128867         3.045243
