19
Iteration:  2262charge 0 multiplicity 1
 O        -2.751543         3.836438         1.623976
 C        -1.963508         2.712947         1.657967
 C        -1.353286         1.946418         0.361021
 C        -0.562647         0.957771         1.184450
 O         0.145903        -0.096144         0.670271
 C        -1.577070         0.508645         2.397446
 C        -1.983775         1.808879         2.840817
 C        -0.770651         2.733088         2.633680
 C         0.312166         1.926328         1.956054
 H        -3.736869         3.685912         1.702910
 H        -2.079776         1.482676        -0.468012
 H        -0.626896         2.652947         0.021101
 H        -0.546688        -0.617827         0.058781
 H        -2.257771        -0.210228         1.979268
 H        -1.034477        -0.110607         3.068464
 H        -2.910788         1.989842         3.465420
 H        -0.565191         3.735340         2.999216
 H         1.080515         2.470112         1.539020
 H         0.836697         1.350424         2.668223
