19
Iteration:  4182
 O        -2.768536         3.871612         1.570260
 C        -1.917276         2.741976         1.634800
 C        -1.635548         1.840815         0.434467
 C        -0.585338         0.885790         1.262771
 O         0.178210        -0.069911         0.593134
 C        -1.517971         0.419251         2.405276
 C        -1.912618         1.881424         2.896336
 C        -0.679402         2.783717         2.598835
 C         0.292189         1.943367         1.955015
 H        -2.303449         4.530333         0.996688
 H        -2.554903         1.273158         0.231796
 H        -1.261199         2.235487        -0.518240
 H        -0.501682        -0.796118         0.411548
 H        -2.385756        -0.138509         2.037814
 H        -0.949100        -0.116748         3.254614
 H        -2.714748         2.100910         3.637362
 H        -0.560798         3.624421         3.285296
 H         0.868115         2.478052         1.201080
 H         0.960704         1.427529         2.713823
