19
Iteration:   157charge 0 multiplicity 1
 O        -2.789561         3.807923         1.423961
 C        -1.861000         2.777480         1.709324
 C        -1.288260         2.083271         0.521004
 C        -0.547091         0.961042         1.255437
 O         0.015941        -0.014949         0.513528
 C        -1.606043         0.365781         2.221622
 C        -1.978051         1.755342         2.870433
 C        -0.808342         2.700083         2.674333
 C         0.359080         1.846466         2.243583
 H        -3.677106         3.322210         1.429941
 H        -2.024525         1.927846        -0.275770
 H        -0.545984         2.790938         0.065307
 H        -0.072573         0.313490        -0.447692
 H        -2.355292         0.061206         1.525635
 H        -1.249262        -0.465738         2.877401
 H        -2.620527         1.957622         3.710038
 H        -0.509815         3.471442         3.399721
 H         1.207735         2.286358         1.784400
 H         0.657919         1.173578         3.095730
