19
Iteration:    88
 O        -2.581540         3.973290         1.697444
 C        -1.994312         2.684027         1.668482
 C        -1.549343         1.876886         0.364769
 C        -0.590958         0.963807         1.182350
 O         0.300316         0.011687         0.535466
 C        -1.601139         0.393637         2.234996
 C        -2.073596         1.756688         2.871829
 C        -0.813528         2.685935         2.666267
 C         0.271018         1.921462         2.089140
 H        -3.289695         4.088144         1.029091
 H        -2.272160         1.368138        -0.258015
 H        -0.931207         2.455697        -0.295633
 H         0.219297        -0.769079         1.100071
 H        -2.489452        -0.036504         1.750043
 H        -0.987025        -0.274681         2.846302
 H        -2.751287         1.844979         3.744100
 H        -0.780939         3.677004         3.101208
 H         0.964950         2.560330         1.563559
 H         0.725732         1.344105         2.874381
