19
Iteration:  3416charge 0 multiplicity 1
 O        -2.828688         3.816524         1.423676
 C        -1.950068         2.762130         1.624301
 C        -1.472742         1.948633         0.408363
 C        -0.527975         0.931513         1.296026
 O         0.039714         0.014495         0.464480
 C        -1.515332         0.490348         2.389282
 C        -1.986621         1.781452         2.869190
 C        -0.773512         2.713400         2.665537
 C         0.344208         1.769017         2.216073
 H        -2.410120         4.679724         1.393140
 H        -2.292267         1.478128        -0.191823
 H        -0.923810         2.658858        -0.362953
 H         1.069406         0.134703         0.506956
 H        -2.246132        -0.063670         1.752605
 H        -1.188519        -0.287898         3.162657
 H        -2.508847         1.935834         3.842298
 H        -0.643774         3.580478         3.358710
 H         1.330173         2.150291         1.744811
 H         0.683422         1.076479         3.062664
