19
Iteration:  4132
 O        -2.768975         3.886046         1.485842
 C        -1.887118         2.759438         1.648833
 C        -1.449004         1.870026         0.517062
 C        -0.547160         0.881724         1.288537
 O        -0.102670        -0.129514         0.425146
 C        -1.539414         0.423242         2.469753
 C        -1.935910         1.811985         2.925069
 C        -0.720646         2.830437         2.595121
 C         0.430090         2.019671         2.016393
 H        -3.530674         3.520440         1.036164
 H        -2.149199         1.316467        -0.143244
 H        -0.767748         2.469559        -0.101073
 H         0.382005        -0.806302         0.991130
 H        -2.339204        -0.103213         1.915938
 H        -0.959127        -0.209193         3.106610
 H        -2.538242         1.926411         3.886809
 H        -0.736158         3.788989         3.148497
 H         1.034194         2.678607         1.370301
 H         1.010912         1.559967         2.790900
