19
Iteration:  4905charge 0 multiplicity 1
 O        -2.899007         3.900445         1.418619
 C        -1.944034         2.773263         1.708744
 C        -1.508569         1.942079         0.476085
 C        -0.553787         0.931191         1.227150
 O         0.019325        -0.129637         0.606975
 C        -1.465427         0.452780         2.357947
 C        -1.880319         1.788634         2.916196
 C        -0.785036         2.729093         2.633382
 C         0.388481         1.908142         1.936867
 H        -2.395381         4.703348         1.545095
 H        -2.313083         1.288920         0.048937
 H        -0.971453         2.540346        -0.327780
 H         0.422657        -0.804846         1.204953
 H        -2.259757        -0.180495         2.009232
 H        -0.759617        -0.098282         3.069535
 H        -2.539804         1.864569         3.820400
 H        -0.396161         3.464042         3.339296
 H         0.860683         2.440836         1.183954
 H         1.072279         1.546766         2.724849
