19
Iteration:  4452charge 0 multiplicity 1
 O        -2.801704         3.932527         1.482013
 C        -1.924742         2.806700         1.692084
 C        -1.578395         1.846335         0.496719
 C        -0.598742         0.821246         1.253992
 O         0.057534        -0.179422         0.519495
 C        -1.398821         0.455319         2.496236
 C        -1.961267         1.796089         2.850024
 C        -0.723831         2.751786         2.596469
 C         0.285396         2.011609         1.879762
 H        -2.230323         4.725975         1.623375
 H        -2.566711         1.447606         0.192428
 H        -1.096057         2.364405        -0.393996
 H         0.676190        -0.545096         1.199264
 H        -2.197497        -0.253124         2.259776
 H        -0.845718         0.088412         3.369750
 H        -2.612267         1.946518         3.700051
 H        -0.611453         3.440803         3.400032
 H         0.729452         2.623670         1.023434
 H         1.131513         1.637183         2.520442
