19
Iteration:  4533
 O        -2.964517         3.701825         1.572198
 C        -1.916452         2.848252         1.633070
 C        -1.567298         1.917553         0.488650
 C        -0.594254         0.861598         1.266306
 O         0.083330        -0.115402         0.500213
 C        -1.565177         0.534259         2.448456
 C        -1.868438         2.022747         2.858661
 C        -0.593826         2.732389         2.562382
 C         0.425997         1.872641         1.962792
 H        -3.059323         4.335743         0.804332
 H        -2.356045         1.342239        -0.028130
 H        -1.106278         2.486823        -0.277199
 H         0.457069        -0.722534         1.141975
 H        -2.375616        -0.075749         2.051792
 H        -1.047808        -0.020321         3.277693
 H        -2.304571         2.232779         3.897439
 H        -0.412652         3.436808         3.375065
 H         1.163992         2.311395         1.341634
 H         0.960371         1.215942         2.720331
