19
Iteration:  3332
 O        -2.676527         3.913213         1.551920
 C        -1.935431         2.722057         1.619679
 C        -1.376524         2.025125         0.405845
 C        -0.548606         0.937323         1.196788
 O         0.101261        -0.160873         0.592920
 C        -1.557944         0.410732         2.314049
 C        -1.986536         1.788604         2.859995
 C        -0.868398         2.712245         2.678326
 C         0.298958         1.913781         2.132603
 H        -3.649564         3.719774         1.510925
 H        -2.190827         1.474171        -0.118802
 H        -0.917647         2.726660        -0.214134
 H         0.682621         0.199099        -0.058100
 H        -2.459788        -0.047465         1.842928
 H        -0.976743        -0.200770         2.987896
 H        -2.877812         1.981339         3.478660
 H        -0.766046         3.601707         3.348749
 H         1.050561         2.515701         1.605818
 H         0.684025         1.270624         2.926594
