19
Iteration:   381
 O        -2.521013         4.011005         1.481315
 C        -1.919075         2.789921         1.678879
 C        -1.442658         1.949648         0.427518
 C        -0.553793         0.963032         1.333831
 O         0.203040         0.010770         0.403083
 C        -1.601444         0.362950         2.209297
 C        -2.164622         1.649734         2.770110
 C        -0.927219         2.650824         2.833174
 C         0.285953         1.822838         2.324468
 H        -3.223170         4.005669         0.820847
 H        -2.283838         1.391299        -0.084273
 H        -0.766475         2.540164        -0.179983
 H         0.638608         0.542060        -0.220062
 H        -2.348341        -0.222255         1.576745
 H        -1.196122        -0.210033         3.046534
 H        -2.914094         1.726917         3.531773
 H        -1.047531         3.413849         3.575042
 H         1.100385         2.537447         1.941674
 H         0.686550         1.063030         3.027482
