19
Iteration:  4148charge 0 multiplicity 1
 O        -2.698371         3.888806         1.547978
 C        -2.010400         2.707894         1.675641
 C        -1.459773         1.967201         0.482478
 C        -0.525093         0.923735         1.319695
 O        -0.030167        -0.143953         0.443652
 C        -1.392303         0.434770         2.493165
 C        -1.995956         1.825339         2.842081
 C        -0.797288         2.752772         2.573332
 C         0.341266         1.955682         1.962996
 H        -3.120251         3.990403         0.683766
 H        -2.338355         1.505865         0.020189
 H        -0.897765         2.625035        -0.228986
 H        -0.002901        -1.011439         1.029995
 H        -2.146390        -0.359438         2.345810
 H        -0.903298         0.180562         3.509538
 H        -2.705524         2.127406         3.545054
 H        -0.518229         3.562079         3.263254
 H         0.923901         2.411185         1.157449
 H         1.112647         1.642549         2.723098
