19
Iteration:  2434
 O        -2.809671         3.817538         1.412448
 C        -1.895813         2.781341         1.631209
 C        -1.402905         1.980464         0.510944
 C        -0.549448         0.949410         1.264212
 O         0.087408        -0.052657         0.505745
 C        -1.531434         0.478262         2.405413
 C        -1.997974         1.858826         2.816504
 C        -0.738418         2.715938         2.735875
 C         0.383483         1.819269         2.093758
 H        -3.689243         3.514290         1.593335
 H        -2.227787         1.399071         0.146355
 H        -0.837700         2.480215        -0.406388
 H        -0.628394        -0.498166         0.066962
 H        -2.444549        -0.144072         2.056514
 H        -0.892807         0.009032         3.181311
 H        -2.814787         2.045867         3.509984
 H        -0.433053         3.557519         3.351192
 H         1.080231         2.472143         1.457359
 H         0.916849         1.328362         2.965022
