19
Iteration:  3821
 O        -2.922829         3.846587         1.612836
 C        -1.886728         2.838508         1.688015
 C        -1.388347         1.871570         0.412854
 C        -0.501145         0.932225         1.251313
 O         0.025230        -0.173219         0.592627
 C        -1.612737         0.478934         2.209488
 C        -1.973032         1.895318         2.780101
 C        -0.707643         2.672721         2.748899
 C         0.378278         1.954909         2.073596
 H        -2.948793         4.139217         0.680367
 H        -2.145252         1.235978        -0.117587
 H        -0.854946         2.461571        -0.409988
 H         1.035420        -0.330887         0.803534
 H        -2.488082        -0.035821         1.760721
 H        -1.341743        -0.256433         3.128883
 H        -2.633327         2.153647         3.561885
 H        -0.493355         3.540105         3.331488
 H         1.081599         2.591901         1.443508
 H         1.110011         1.394575         2.678052
