19
Iteration:  4268
 O        -2.771318         3.898897         1.448698
 C        -1.976018         2.714615         1.653716
 C        -1.489460         1.860741         0.506975
 C        -0.485100         0.914655         1.314648
 O        -0.214707        -0.191894         0.503445
 C        -1.409958         0.507067         2.463564
 C        -1.834890         1.874429         2.922433
 C        -0.791002         2.779167         2.600716
 C         0.470676         1.994688         1.969794
 H        -3.714043         3.599694         1.296752
 H        -2.269797         1.175061         0.181191
 H        -0.841510         2.282269        -0.286873
 H         0.644149        -0.334424         0.230756
 H        -2.254758        -0.029776         2.035017
 H        -0.791530        -0.057619         3.233700
 H        -2.510393         1.858384         3.819271
 H        -0.820752         3.735902         3.134952
 H         1.069421         2.572165         1.312102
 H         1.121904         1.544271         2.736553
