19
Iteration:  2356
 O        -2.701251         4.055658         1.557379
 C        -1.907356         2.743902         1.646986
 C        -1.522544         1.883333         0.437377
 C        -0.526360         0.904707         1.261393
 O         0.104406        -0.154381         0.484769
 C        -1.456177         0.423469         2.399160
 C        -2.030699         1.759372         2.801085
 C        -0.841489         2.761760         2.691025
 C         0.260164         1.897421         2.039689
 H        -3.485177         3.813507         1.012801
 H        -2.312981         1.287510         0.132064
 H        -0.953180         2.450651        -0.358561
 H         0.813766        -0.424238         1.023547
 H        -2.156448        -0.424892         2.103361
 H        -0.951626         0.099401         3.357522
 H        -2.754342         1.816909         3.644201
 H        -0.602017         3.665427         3.245455
 H         0.788368         2.573061         1.258549
 H         1.130504         1.638811         2.694332
