19
Iteration:   754charge 0 multiplicity 1
 O        -2.697144         3.947955         1.439002
 C        -1.884345         2.807620         1.690181
 C        -1.265128         2.080689         0.574696
 C        -0.530718         0.953336         1.341374
 O         0.133333        -0.060005         0.477331
 C        -1.658331         0.401176         2.135604
 C        -2.102890         1.732051         2.674250
 C        -0.884985         2.615675         2.818118
 C         0.310075         1.784122         2.247191
 H        -3.553496         3.698862         1.745539
 H        -1.901371         1.394783        -0.089898
 H        -0.602891         2.727103        -0.127600
 H         0.353255         0.420521        -0.346399
 H        -2.328615        -0.052864         1.389092
 H        -1.304978        -0.210564         3.007613
 H        -2.884986         1.877289         3.461939
 H        -0.703617         3.222053         3.719958
 H         1.173973         2.352043         1.744538
 H         0.648243         1.270070         3.166392
