19
Iteration:  4895charge 0 multiplicity 1
 O        -2.776121         3.865762         1.388848
 C        -1.944514         2.771767         1.700536
 C        -1.526824         1.960870         0.478830
 C        -0.593382         0.961450         1.274266
 O        -0.006120        -0.181133         0.536801
 C        -1.393083         0.392137         2.428398
 C        -1.981460         1.686513         2.911963
 C        -0.751488         2.762238         2.644250
 C         0.310590         2.058160         1.913291
 H        -2.272610         4.669903         1.599767
 H        -2.456564         1.579058        -0.006936
 H        -0.859469         2.372965        -0.322541
 H         0.354336        -0.708839         1.352081
 H        -2.143150        -0.305598         2.038988
 H        -0.844407        -0.172922         3.213531
 H        -2.471342         1.980040         3.859500
 H        -0.495838         3.488572         3.416715
 H         0.822207         2.759200         1.355937
 H         1.107081         1.661066         2.563904
