19
Iteration:  4178
 O        -2.754208         3.883535         1.574840
 C        -1.924429         2.768284         1.645251
 C        -1.621212         1.810573         0.390495
 C        -0.605665         0.894479         1.251514
 O         0.153113        -0.063860         0.592176
 C        -1.479033         0.402094         2.409089
 C        -1.929181         1.860318         2.904457
 C        -0.695865         2.750425         2.633374
 C         0.295151         1.965914         1.952638
 H        -2.392570         4.487339         0.904247
 H        -2.613580         1.346812         0.203428
 H        -1.110711         2.227476        -0.546713
 H        -0.440460        -0.790309         0.543415
 H        -2.394798        -0.180630         2.118437
 H        -0.889813         0.067967         3.292992
 H        -2.680894         2.099795         3.589281
 H        -0.445436         3.660955         3.179372
 H         0.926375         2.521714         1.248781
 H         0.860907         1.419410         2.669157
