19
Iteration:  2912
 O        -2.604255         3.957608         1.448088
 C        -1.858286         2.727539         1.647765
 C        -1.497166         1.857684         0.489629
 C        -0.545888         0.906928         1.373621
 O         0.146286         0.085488         0.374893
 C        -1.665604         0.422588         2.335718
 C        -2.062817         1.739826         2.865567
 C        -0.869774         2.693678         2.714229
 C         0.361277         1.901933         2.163174
 H        -3.416107         3.819245         0.964536
 H        -2.431752         1.256196         0.089053
 H        -0.890319         2.306794        -0.415382
 H         0.665262        -0.564037         0.914641
 H        -2.533763        -0.028568         1.839576
 H        -1.432563        -0.294386         3.097171
 H        -2.762346         1.788508         3.678986
 H        -0.495156         3.538117         3.308718
 H         0.965589         2.487472         1.501421
 H         0.999626         1.410731         2.883898
