19
Iteration:  1198charge 0 multiplicity 1
 O        -2.571543         4.041017         1.588391
 C        -2.024827         2.727876         1.679177
 C        -1.528703         1.935335         0.490827
 C        -0.569449         0.936207         1.309827
 O         0.240750        -0.099264         0.633166
 C        -1.566837         0.397315         2.254087
 C        -2.074938         1.721395         2.753048
 C        -0.812514         2.713969         2.650188
 C         0.358535         1.905284         2.028157
 H        -3.504269         3.806636         1.339583
 H        -2.337545         1.408486         0.058016
 H        -1.013814         2.502171        -0.294456
 H        -0.078678         0.000138        -0.343671
 H        -2.417439        -0.158060         1.761329
 H        -1.193034        -0.224068         3.054883
 H        -2.983427         1.693407         3.376148
 H        -0.759431         3.544165         3.322077
 H         1.101806         2.395445         1.414556
 H         0.794531         1.321271         2.904475
