19
Iteration:  2820charge 0 multiplicity 1
 O        -2.721622         3.869360         1.407811
 C        -1.935139         2.763725         1.626028
 C        -1.412233         1.946664         0.384038
 C        -0.562862         0.944613         1.218592
 O         0.086591         0.012466         0.430891
 C        -1.610664         0.436798         2.366586
 C        -1.938395         1.850892         2.927095
 C        -0.785120         2.694857         2.766443
 C         0.301930         1.821267         2.196222
 H        -3.673127         3.697076         1.214937
 H        -2.183357         1.476553        -0.242507
 H        -0.648486         2.645866        -0.181140
 H         0.484108        -0.622626         1.119787
 H        -2.403027        -0.179780         1.934789
 H        -1.204175        -0.316977         2.992909
 H        -2.645531         2.058630         3.783336
 H        -0.463042         3.428800         3.497876
 H         1.122490         2.321953         1.687532
 H         0.760321         1.284307         3.053120
