19
Iteration:  1151charge 0 multiplicity 1
 O        -2.678106         3.854780         1.370109
 C        -1.963139         2.794964         1.703301
 C        -1.379416         1.962608         0.577906
 C        -0.547645         0.904468         1.342927
 O        -0.023242         0.024165         0.403517
 C        -1.558115         0.373127         2.343189
 C        -2.021442         1.805230         2.769331
 C        -0.782284         2.758462         2.696569
 C         0.377222         1.755239         2.218427
 H        -3.583386         3.570035         1.417197
 H        -2.081256         1.602415        -0.093478
 H        -0.720000         2.644347         0.046743
 H         0.840547         0.374801         0.089833
 H        -2.322087        -0.129229         1.714656
 H        -1.334479        -0.254482         3.243729
 H        -2.581443         2.018117         3.695472
 H        -0.737240         3.598694         3.425476
 H         0.880558         2.329058         1.411785
 H         1.031332         1.333614         2.956440
