19
Iteration:  1944charge 0 multiplicity 1
 O        -2.683969         3.855313         1.379930
 C        -1.818907         2.714195         1.642942
 C        -1.426565         1.920105         0.515512
 C        -0.566174         0.956837         1.347760
 O         0.023557         0.090802         0.380320
 C        -1.564003         0.399930         2.368301
 C        -2.048351         1.766353         2.872097
 C        -0.736822         2.716569         2.761040
 C         0.317523         1.946787         2.138664
 H        -3.508669         3.424878         1.106705
 H        -2.244969         1.369776         0.206355
 H        -0.784875         2.397274        -0.237338
 H         0.109043        -0.860165         0.832157
 H        -2.303899        -0.233258         1.797663
 H        -1.330666        -0.199010         3.244721
 H        -2.761856         1.963391         3.719243
 H        -0.835019         3.650176         3.374548
 H         1.004969         2.487960         1.487120
 H         1.023104         1.225563         2.652556
