19
Iteration:  2447charge 0 multiplicity 1
 O        -2.683625         3.825924         1.447191
 C        -1.847763         2.742513         1.645638
 C        -1.455613         1.889862         0.493254
 C        -0.558443         0.976819         1.299237
 O         0.028173         0.002943         0.492851
 C        -1.504585         0.424886         2.372219
 C        -1.950663         1.798611         2.825012
 C        -0.801836         2.799917         2.643996
 C         0.326284         1.941736         2.133252
 H        -3.650803         3.539067         1.539025
 H        -2.289990         1.418992         0.041033
 H        -0.863830         2.457334        -0.291468
 H        -0.551588        -0.817343         0.624783
 H        -2.310579        -0.277609         1.874104
 H        -1.098619        -0.247118         3.161010
 H        -2.821350         2.062777         3.418859
 H        -0.813404         3.520886         3.476018
 H         1.131153         2.440617         1.510164
 H         0.953527         1.160212         2.761177
