19
Iteration:  1932
 O        -2.632964         3.816892         1.386029
 C        -1.872121         2.757754         1.682535
 C        -1.494147         1.898226         0.474772
 C        -0.567420         0.980287         1.246681
 O        -0.013396         0.080944         0.393804
 C        -1.515259         0.417128         2.437485
 C        -1.985045         1.784668         2.852458
 C        -0.853333         2.733131         2.754314
 C         0.367276         1.855672         2.179524
 H        -3.349258         3.575816         0.739556
 H        -2.320135         1.464330        -0.023960
 H        -1.024882         2.515850        -0.341947
 H         0.572753        -0.533383         0.837586
 H        -2.412123        -0.110036         1.977045
 H        -0.906647        -0.228326         3.076327
 H        -2.816775         2.005128         3.535757
 H        -0.577937         3.433021         3.548446
 H         1.081812         2.521453         1.687168
 H         0.811851         1.276557         3.057928
