19
Iteration:  1470
 O        -2.731699         4.004541         1.738759
 C        -1.969809         2.779962         1.633783
 C        -1.471283         1.915453         0.284455
 C        -0.574674         0.949774         1.144916
 O         0.293256        -0.159775         0.697782
 C        -1.590593         0.483230         2.285635
 C        -2.117586         1.784639         2.727723
 C        -0.847080         2.675119         2.635783
 C         0.300366         1.864176         2.080536
 H        -2.031167         4.651348         1.872326
 H        -2.184818         1.325210        -0.383382
 H        -0.754515         2.571163        -0.319521
 H        -0.337708        -0.916161         0.598164
 H        -2.404740        -0.154736         1.867619
 H        -0.992696        -0.096536         2.934009
 H        -2.717694         1.757497         3.651776
 H        -0.522468         3.601882         3.148423
 H         0.966454         2.500254         1.507807
 H         0.915584         1.219177         2.741726
