19
Iteration:   727
 O        -2.717898         3.903360         1.571657
 C        -1.833508         2.764361         1.647498
 C        -1.318763         2.184175         0.278733
 C        -0.620858         0.966338         1.219877
 O         0.238684        -0.132233         0.688321
 C        -1.684987         0.441671         2.063625
 C        -2.122120         1.730479         2.719510
 C        -0.877305         2.603560         2.837560
 C         0.288102         1.802358         2.259859
 H        -3.053493         3.837272         2.446637
 H        -1.974621         1.807487        -0.483812
 H        -0.590328         2.822963        -0.095171
 H         0.417795         0.071465        -0.211349
 H        -2.405979        -0.146501         1.430620
 H        -1.205982        -0.232849         2.774538
 H        -2.799813         1.866841         3.522250
 H        -0.654799         3.524362         3.358148
 H         1.016129         2.407934         1.774511
 H         0.628355         1.185352         3.118868
