19
Iteration:   439
 O        -2.777653         3.969680         1.600167
 C        -1.913830         2.762991         1.678458
 C        -1.276619         2.172640         0.477555
 C        -0.480571         0.950800         1.243812
 O         0.171351        -0.216230         0.503360
 C        -1.697843         0.409527         2.105687
 C        -2.094883         1.712260         2.751081
 C        -0.828190         2.715738         2.763119
 C         0.253745         1.818352         2.234857
 H        -3.468091         3.798498         0.891494
 H        -1.858300         1.675879        -0.256096
 H        -0.550131         2.718575        -0.019961
 H         1.099848         0.172173         0.287745
 H        -2.366703        -0.166675         1.511749
 H        -1.306792        -0.287968         2.885091
 H        -2.882290         1.808543         3.522021
 H        -0.608933         3.444928         3.580464
 H         1.077770         2.475538         1.941583
 H         0.694221         1.197150         3.058802
