19
Iteration:  4276charge 0 multiplicity 1
 O        -2.751515         3.920246         1.504993
 C        -1.946995         2.728713         1.631383
 C        -1.494653         1.774540         0.517389
 C        -0.584300         0.884077         1.333762
 O        -0.125389        -0.176844         0.492633
 C        -1.470271         0.516921         2.457468
 C        -1.826316         1.808023         2.980716
 C        -0.737647         2.842115         2.571716
 C         0.391289         1.989885         1.923328
 H        -3.510639         3.546313         1.002610
 H        -2.310956         1.311438        -0.084491
 H        -1.020959         2.442479        -0.255021
 H         0.799053        -0.188441         0.488488
 H        -2.196089        -0.200272         1.979866
 H        -0.956384        -0.137246         3.174286
 H        -2.426860         2.009334         3.814312
 H        -0.624765         3.838397         3.000967
 H         0.998675         2.665112         1.259584
 H         0.974314         1.685615         2.782503
