19
Iteration:  4435charge 0 multiplicity 1
 O        -2.730603         3.840677         1.538132
 C        -1.947505         2.707536         1.654261
 C        -1.612796         1.801252         0.443964
 C        -0.619992         0.939866         1.271647
 O         0.120648        -0.082713         0.550800
 C        -1.611123         0.409890         2.485562
 C        -1.911631         1.896700         2.926910
 C        -0.744594         2.856321         2.526731
 C         0.363079         1.921708         1.836652
 H        -2.403899         4.428086         2.272888
 H        -2.391788         1.188372        -0.023799
 H        -1.090531         2.308181        -0.332266
 H         0.732207        -0.445471         1.196633
 H        -2.485424        -0.208795         2.216742
 H        -0.886317        -0.112209         3.154973
 H        -2.505066         2.135603         3.793228
 H        -0.512775         3.819013         3.063753
 H         0.941628         2.333588         1.061642
 H         1.043113         1.426292         2.527720
