19
Iteration:  2610
 O        -2.680473         4.036342         1.571134
 C        -1.968926         2.807767         1.652690
 C        -1.468233         1.811434         0.438120
 C        -0.542780         0.883029         1.289029
 O         0.179076        -0.025493         0.545341
 C        -1.641935         0.379441         2.185000
 C        -1.973820         1.756551         2.869373
 C        -0.792495         2.771273         2.599889
 C         0.336945         1.911492         2.148118
 H        -3.556375         3.744951         1.354211
 H        -2.112924         1.082257        -0.068097
 H        -0.835244         2.478545        -0.336284
 H        -0.155062        -0.932786         0.863478
 H        -2.537864        -0.102911         1.823518
 H        -1.271976        -0.347353         2.879802
 H        -2.509066         1.947489         3.816910
 H        -0.651096         3.621710         3.244008
 H         1.096214         2.381844         1.519365
 H         0.854349         1.514414         2.962573
