19
Iteration:  3846charge 0 multiplicity 1
 O        -2.749077         3.788384         1.550561
 C        -1.927504         2.742442         1.687481
 C        -1.413522         2.088637         0.491804
 C        -0.594382         0.875922         1.243248
 O         0.019078        -0.152611         0.592824
 C        -1.549447         0.423805         2.299765
 C        -1.954060         1.786370         2.911224
 C        -0.832939         2.781297         2.600229
 C         0.343789         1.946762         2.011716
 H        -2.735581         4.085978         0.601381
 H        -2.037206         1.856496        -0.434074
 H        -0.627371         2.733344         0.027890
 H         0.971607        -0.315261         0.934026
 H        -2.476721        -0.072577         1.938509
 H        -1.115563        -0.383482         2.972652
 H        -2.817985         2.106939         3.590238
 H        -0.781672         3.606736         3.329014
 H         1.076683         2.351060         1.283328
 H         1.025617         1.508864         2.635692
