19
Iteration:  1029charge 0 multiplicity 1
 O        -2.662080         3.924623         1.368932
 C        -1.850994         2.809446         1.634655
 C        -1.352454         2.013026         0.505893
 C        -0.562511         0.938707         1.301663
 O        -0.005430         0.039274         0.513126
 C        -1.521986         0.463536         2.285565
 C        -2.061569         1.730520         2.803251
 C        -0.829035         2.547834         2.796529
 C         0.301106         1.800033         2.237054
 H        -3.407531         3.492742         0.914799
 H        -1.965160         1.303978         0.006693
 H        -0.750258         2.505738        -0.184884
 H         0.134629         0.362597        -0.445151
 H        -2.363810        -0.127280         1.947849
 H        -1.069185        -0.212297         3.082643
 H        -2.808307         1.828125         3.619977
 H        -0.710169         3.263658         3.600930
 H         0.880199         2.650210         1.741998
 H         0.946289         1.279095         2.939016
