19
Iteration:  4978charge 0 multiplicity 1
 O        -2.763996         3.888366         1.376366
 C        -1.939423         2.734720         1.699634
 C        -1.479344         2.027904         0.557978
 C        -0.531816         0.975470         1.277841
 O        -0.030104        -0.188079         0.441536
 C        -1.508071         0.479766         2.426400
 C        -1.979555         1.782573         2.931687
 C        -0.741536         2.732184         2.625983
 C         0.418680         1.913495         2.019641
 H        -3.535368         3.666410         0.843892
 H        -2.291068         1.408071         0.148730
 H        -1.058030         2.744617        -0.128174
 H         0.614075        -0.643997         0.917680
 H        -2.227247        -0.240864         2.077122
 H        -0.892055         0.057652         3.249576
 H        -2.516964         2.019205         3.893292
 H        -0.595978         3.471659         3.439068
 H         1.019674         2.602096         1.301384
 H         0.992285         1.358753         2.802879
