19
Iteration:   807charge 0 multiplicity 1
 O        -2.683996         4.034095         1.525043
 C        -1.937284         2.796388         1.682610
 C        -1.361150         2.035008         0.513295
 C        -0.582989         0.983350         1.224102
 O         0.149558        -0.019808         0.535918
 C        -1.596174         0.345304         2.201867
 C        -2.170499         1.676549         2.711829
 C        -0.861725         2.623849         2.746343
 C         0.328063         1.746725         2.276757
 H        -2.826774         4.106548         0.596433
 H        -2.058514         1.475666        -0.127946
 H        -0.643295         2.537901        -0.105664
 H         0.952139         0.333888         0.123085
 H        -2.344698        -0.226448         1.550256
 H        -1.148344        -0.244103         3.028367
 H        -2.886327         1.710713         3.579767
 H        -0.753337         3.382167         3.527471
 H         1.104104         2.455329         1.772023
 H         1.005691         1.158148         2.916515
