19
Iteration:  3525
 O        -2.822332         3.779830         1.475952
 C        -1.875970         2.745690         1.609832
 C        -1.448588         1.896772         0.462748
 C        -0.522516         0.983590         1.333499
 O         0.034735         0.054984         0.403624
 C        -1.534027         0.461666         2.414947
 C        -2.032847         1.790322         2.844806
 C        -0.766560         2.727289         2.731386
 C         0.382251         1.868169         2.159543
 H        -2.492208         4.384319         0.771256
 H        -2.221666         1.469171        -0.132253
 H        -0.861896         2.403428        -0.364886
 H         0.102943        -0.775286         0.798116
 H        -2.285178        -0.073156         1.903012
 H        -1.186478        -0.222110         3.175898
 H        -2.779435         1.916107         3.591710
 H        -0.433215         3.582678         3.306368
 H         1.056929         2.495112         1.439259
 H         0.949512         1.184828         2.868315
