19
Iteration:  2671
 O        -2.706356         3.951111         1.401571
 C        -1.905550         2.772806         1.681070
 C        -1.387581         1.922997         0.509665
 C        -0.509389         0.962779         1.322606
 O        -0.007695        -0.021708         0.441173
 C        -1.530651         0.386486         2.302030
 C        -1.974133         1.781779         2.860243
 C        -0.823078         2.710338         2.716086
 C         0.309672         1.876771         2.117159
 H        -3.584593         3.611176         1.204084
 H        -2.010389         1.359433        -0.180669
 H        -0.801672         2.495370        -0.077722
 H         0.390383        -0.820202         0.960471
 H        -2.408301         0.054411         1.753770
 H        -1.179231        -0.246653         3.153162
 H        -2.730736         1.715110         3.678766
 H        -0.528136         3.511627         3.407581
 H         1.048016         2.529198         1.567377
 H         0.754075         1.363670         3.045423
