19
Iteration:  4874
 O        -2.625769         3.826027         1.414663
 C        -1.941075         2.625585         1.671657
 C        -1.521312         1.810243         0.506934
 C        -0.566098         0.886417         1.270142
 O        -0.050521        -0.058662         0.414651
 C        -1.438187         0.487607         2.481616
 C        -2.000005         1.787853         2.909539
 C        -0.875573         2.787075         2.727916
 C         0.354484         2.076804         1.956574
 H        -2.115842         4.550837         1.849159
 H        -2.291560         1.150453         0.088685
 H        -1.032867         2.356472        -0.326672
 H         0.459333        -0.773166         0.842614
 H        -2.232222        -0.294128         2.390359
 H        -0.779028         0.137243         3.264743
 H        -2.882564         2.024191         3.553849
 H        -0.768074         3.740675         3.211999
 H         0.685319         2.717310         1.136084
 H         1.298200         1.967816         2.529672
