19
Iteration:  4735charge 0 multiplicity 1
 O        -2.753621         3.758414         1.375089
 C        -1.869280         2.729356         1.725258
 C        -1.619176         1.783522         0.597152
 C        -0.666594         0.888552         1.311443
 O         0.151240         0.123481         0.402408
 C        -1.557773         0.492271         2.521513
 C        -1.900844         1.848587         2.929169
 C        -0.682663         2.809194         2.555401
 C         0.314077         1.856148         1.952464
 H        -2.385948         4.683711         1.385478
 H        -2.517491         1.237511         0.331966
 H        -1.274925         2.228887        -0.338593
 H         0.210706        -0.713592         1.023418
 H        -2.510506        -0.090490         2.204934
 H        -1.111904        -0.170380         3.256861
 H        -2.768389         1.961826         3.664919
 H        -0.498167         3.591781         3.311303
 H         0.957518         2.330124         1.128007
 H         1.000899         1.343282         2.584159
