19
Iteration:  3292charge 0 multiplicity 1
 O        -2.733316         3.841089         1.395650
 C        -1.864938         2.759383         1.668528
 C        -1.435443         1.955453         0.540338
 C        -0.537317         0.962254         1.292384
 O         0.085511        -0.001789         0.437999
 C        -1.675245         0.408373         2.346484
 C        -1.998483         1.815543         2.789180
 C        -0.737163         2.718123         2.724120
 C         0.326882         1.818820         2.165081
 H        -3.543378         3.619360         1.857495
 H        -2.364727         1.521942         0.117001
 H        -0.938644         2.421321        -0.412272
 H         1.058966         0.249378         0.262424
 H        -2.467157        -0.183825         1.935306
 H        -1.277312        -0.278728         3.120691
 H        -2.761904         2.081555         3.500910
 H        -0.421073         3.459773         3.465912
 H         1.059419         2.460987         1.542224
 H         0.757161         1.365719         3.061302
