19
Iteration:  3549charge 0 multiplicity 1
 O        -2.782805         3.758046         1.413275
 C        -1.953102         2.700316         1.684573
 C        -1.318555         1.998523         0.508921
 C        -0.579151         0.931238         1.254769
 O         0.049469        -0.072825         0.423908
 C        -1.630322         0.417544         2.386992
 C        -1.998224         1.786160         2.894552
 C        -0.794357         2.804530         2.707827
 C         0.358099         1.965255         2.035960
 H        -2.512678         4.532513         1.899905
 H        -1.985987         1.711715        -0.313905
 H        -0.682578         2.654633        -0.081947
 H         0.544128        -0.631146         1.114782
 H        -2.503996        -0.170697         2.180899
 H        -1.093616        -0.208321         3.099494
 H        -2.705737         1.991153         3.695096
 H        -0.632571         3.524746         3.493934
 H         0.887093         2.371297         1.166382
 H         1.072343         1.413852         2.766086
