19
Iteration:  4820charge 0 multiplicity 1
 O        -2.941658         3.688240         1.516962
 C        -1.862424         2.809164         1.665826
 C        -1.548281         1.899400         0.465511
 C        -0.618384         0.919210         1.206828
 O         0.109462        -0.091886         0.517334
 C        -1.548413         0.506581         2.401425
 C        -1.858292         1.921961         2.958444
 C        -0.651553         2.828294         2.644550
 C         0.299529         1.815846         1.959348
 H        -2.673301         4.457742         0.993556
 H        -2.365004         1.396849        -0.014969
 H        -1.039368         2.554493        -0.244738
 H         0.856830        -0.316705         1.058514
 H        -2.442259         0.002396         1.937529
 H        -1.129625        -0.165511         3.110712
 H        -2.417258         2.307829         3.850611
 H        -0.277699         3.729604         3.139130
 H         1.123861         2.313022         1.372172
 H         0.796665         1.166070         2.734897
