19
Iteration:  4638charge 0 multiplicity 1
 O        -2.885138         3.701429         1.428521
 C        -1.932189         2.704697         1.736440
 C        -1.519072         1.815484         0.614476
 C        -0.556170         0.907297         1.274393
 O        -0.020962        -0.081080         0.413313
 C        -1.592650         0.563324         2.439130
 C        -1.894065         1.899325         2.948032
 C        -0.666018         2.848381         2.510399
 C         0.469045         1.928380         1.977472
 H        -2.730206         4.524016         1.970933
 H        -2.316960         1.325209         0.009194
 H        -0.796959         2.334684        -0.096151
 H         0.740250        -0.509934         0.964782
 H        -2.442765         0.173949         1.821149
 H        -1.339679        -0.289081         3.101465
 H        -2.399052         2.332456         3.830652
 H        -0.504537         3.789931         3.068808
 H         1.178656         2.379727         1.234392
 H         1.064915         1.403979         2.722955
