19
Iteration:  1111
 O        -2.723679         3.792473         1.656126
 C        -1.784771         2.762570         1.629567
 C        -1.387855         2.115210         0.377939
 C        -0.567913         0.907740         1.215984
 O         0.040566        -0.206389         0.609689
 C        -1.581108         0.466193         2.142295
 C        -2.006938         1.880699         2.774016
 C        -0.819210         2.768037         2.752450
 C         0.247071         1.876686         2.135453
 H        -3.548938         3.517109         1.149288
 H        -2.225839         1.679721        -0.237931
 H        -0.614848         2.560135        -0.334085
 H         1.020441        -0.204647         0.845283
 H        -2.382934        -0.203083         1.709515
 H        -1.088287        -0.040783         2.949822
 H        -2.849029         1.998014         3.526333
 H        -0.656896         3.579049         3.480627
 H         0.868477         2.605664         1.596870
 H         0.889619         1.203922         2.844439
