19
Iteration:  2230charge 0 multiplicity 1
 O        -2.743621         4.010941         1.521838
 C        -1.902643         2.834552         1.648962
 C        -1.586863         1.849673         0.488791
 C        -0.533357         0.907719         1.300987
 O         0.202067        -0.083521         0.616725
 C        -1.588213         0.337395         2.342506
 C        -1.927021         1.772913         2.790063
 C        -0.779700         2.672801         2.651072
 C         0.392363         1.979246         2.051079
 H        -3.619310         3.847804         1.203982
 H        -2.544454         1.285141         0.046214
 H        -1.118839         2.296918        -0.377613
 H        -0.223876        -0.146419        -0.219104
 H        -2.353607        -0.131800         1.760830
 H        -1.191116        -0.319848         3.126047
 H        -2.740021         1.821724         3.558267
 H        -0.618636         3.537434         3.301449
 H         0.914528         2.626265         1.436298
 H         0.954550         1.498294         2.785248
