19
Iteration:  2141
 O        -2.802546         3.869674         1.622015
 C        -1.873213         2.847053         1.620123
 C        -1.482637         2.015127         0.351504
 C        -0.575970         0.982287         1.212708
 O         0.250590        -0.172618         0.679996
 C        -1.611689         0.425091         2.228568
 C        -1.988210         1.855214         2.828577
 C        -0.778917         2.751592         2.708955
 C         0.390469         1.871636         2.006881
 H        -3.646085         3.443554         1.613746
 H        -2.365186         1.363255        -0.163723
 H        -0.975498         2.653718        -0.422794
 H        -0.472900        -0.819238         0.687414
 H        -2.455691        -0.221770         1.932795
 H        -1.004889        -0.081443         2.984322
 H        -2.813056         1.879457         3.524516
 H        -0.591672         3.449082         3.559584
 H         1.036651         2.405381         1.352901
 H         0.849891         1.208783         2.725606
