19
Iteration:  3707charge 0 multiplicity 1
 O        -2.831644         3.857653         1.533451
 C        -1.988095         2.721834         1.637463
 C        -1.437226         1.960832         0.462998
 C        -0.591335         0.882505         1.254207
 O         0.100698        -0.154870         0.573196
 C        -1.567324         0.460680         2.354677
 C        -2.027758         1.860366         2.876949
 C        -0.744125         2.758754         2.539883
 C         0.373478         1.879110         2.039288
 H        -2.569983         4.640303         2.031057
 H        -1.963702         1.393850        -0.306161
 H        -0.716016         2.592678        -0.057206
 H         1.023792         0.294148         0.370168
 H        -2.348379        -0.196329         1.863109
 H        -1.087406        -0.147485         3.139688
 H        -2.680507         2.227957         3.692247
 H        -0.518290         3.494696         3.291054
 H         1.176931         2.271752         1.473395
 H         0.827690         1.286539         2.917756
