19
Iteration:  1718
 O        -2.807956         3.904813         1.624183
 C        -1.846967         2.809775         1.630142
 C        -1.409743         1.918815         0.430251
 C        -0.590360         0.909998         1.258884
 O         0.123190        -0.092281         0.638622
 C        -1.649824         0.409013         2.220558
 C        -2.026717         1.757632         2.702557
 C        -0.739226         2.756161         2.670763
 C         0.377827         1.894278         2.220822
 H        -2.742963         4.497125         0.858946
 H        -2.206993         1.310532        -0.076023
 H        -0.877669         2.460466        -0.327211
 H         0.135516         0.073651        -0.297602
 H        -2.465328         0.019815         1.630776
 H        -1.323972        -0.396095         2.978158
 H        -2.856724         1.854039         3.385514
 H        -0.416545         3.392209         3.451628
 H         1.251835         2.370194         1.651135
 H         0.753615         1.349277         3.056264
