19
Iteration:  1924charge 0 multiplicity 1
 O        -2.662346         3.889804         1.418224
 C        -1.939186         2.733441         1.667577
 C        -1.480214         1.929735         0.484842
 C        -0.590010         0.975029         1.274077
 O         0.026567        -0.013550         0.347746
 C        -1.526571         0.442114         2.368178
 C        -1.981282         1.802109         2.893647
 C        -0.796996         2.710615         2.730264
 C         0.320265         1.844725         2.205482
 H        -3.183354         3.619551         0.599702
 H        -2.277151         1.352932        -0.040377
 H        -1.007749         2.485069        -0.291142
 H         0.875494        -0.224087         0.915427
 H        -2.246728        -0.327669         2.188467
 H        -0.795251        -0.001167         3.075707
 H        -2.826133         1.846280         3.644298
 H        -0.612083         3.607689         3.430609
 H         1.133304         2.356524         1.689524
 H         0.711472         1.417945         3.145851
