19
Iteration:  2707
 O        -2.747140         3.802078         1.472923
 C        -1.804829         2.771436         1.614771
 C        -1.371938         1.901063         0.455210
 C        -0.533997         0.924196         1.258329
 O         0.076150        -0.005438         0.404672
 C        -1.719973         0.502482         2.384524
 C        -1.996369         1.878089         2.826210
 C        -0.724181         2.742432         2.735935
 C         0.261606         1.832482         2.162279
 H        -3.531941         3.342527         1.748955
 H        -2.220908         1.495600        -0.091474
 H        -0.701711         2.542760        -0.188530
 H         0.919972        -0.335388         0.873909
 H        -2.548075         0.040052         1.839530
 H        -1.407077        -0.313500         3.140091
 H        -2.824734         2.051727         3.491187
 H        -0.522330         3.589541         3.357715
 H         1.188110         2.322609         1.615903
 H         0.736443         1.297527         3.024962
