19
Iteration:  3773charge 0 multiplicity 1
 O        -2.775563         3.891382         1.394430
 C        -2.006832         2.732340         1.656993
 C        -1.397920         1.861787         0.448274
 C        -0.651817         0.892027         1.353682
 O         0.083677        -0.023563         0.412797
 C        -1.521476         0.396021         2.446728
 C        -1.921168         1.819486         2.944526
 C        -0.841053         2.767353         2.611497
 C         0.300029         1.861157         2.081911
 H        -2.173719         4.631578         1.665243
 H        -2.105353         1.476881        -0.322751
 H        -0.621878         2.509287         0.031768
 H         0.948013         0.203686         0.581128
 H        -2.444977        -0.114889         2.104277
 H        -1.002455        -0.279697         3.159668
 H        -2.714898         1.920874         3.754554
 H        -0.670595         3.580925         3.346708
 H         1.026248         2.310574         1.406441
 H         0.973088         1.309858         2.934863
