19
Iteration:  1757charge 0 multiplicity 1
 O        -2.752056         3.947697         1.537392
 C        -1.935005         2.774936         1.674722
 C        -1.406986         1.975390         0.374180
 C        -0.592631         0.902189         1.245329
 O         0.119486        -0.146439         0.607701
 C        -1.597772         0.375985         2.306645
 C        -2.082024         1.750311         2.810377
 C        -0.799571         2.730426         2.653606
 C         0.307438         1.888290         2.043694
 H        -2.123485         4.585894         1.966051
 H        -2.132060         1.715346        -0.373839
 H        -0.496210         2.449815        -0.105159
 H         1.096066         0.238175         0.585519
 H        -2.389574        -0.321087         1.916753
 H        -1.128541        -0.167226         3.083863
 H        -2.946536         1.838946         3.482567
 H        -0.736263         3.453021         3.449507
 H         0.987515         2.608190         1.618871
 H         0.931242         1.401951         2.858893
