19
Iteration:  2126
 O        -2.750460         3.860528         1.666622
 C        -1.896950         2.760583         1.622265
 C        -1.425588         1.969237         0.361261
 C        -0.620567         0.929054         1.159798
 O         0.235327        -0.063571         0.741459
 C        -1.605922         0.528938         2.254160
 C        -1.950880         1.787851         2.841584
 C        -0.749037         2.703131         2.597481
 C         0.221233         1.863050         2.024668
 H        -3.684151         3.525023         1.676661
 H        -2.305921         1.618514        -0.216373
 H        -0.700730         2.550081        -0.320902
 H        -0.108882        -0.891612         0.539281
 H        -2.494648         0.071432         1.731656
 H        -1.220345        -0.279974         2.880862
 H        -2.563447         2.094641         3.675665
 H        -0.580822         3.633891         3.095386
 H         0.984387         2.468122         1.468632
 H         0.933120         1.361468         2.724933
