19
Iteration:  3157charge 0 multiplicity 1
 O        -2.649623         3.847919         1.423304
 C        -1.787025         2.732324         1.664362
 C        -1.366009         1.948354         0.498017
 C        -0.566976         0.924207         1.264328
 O         0.152389        -0.000120         0.421783
 C        -1.660446         0.459615         2.377532
 C        -2.094681         1.804646         2.771359
 C        -0.884942         2.696329         2.837533
 C         0.351084         1.936426         2.121689
 H        -3.478731         3.522571         1.841250
 H        -2.251337         1.372014        -0.040450
 H        -0.814038         2.497892        -0.254062
 H        -0.456038        -0.810333         0.233123
 H        -2.409814        -0.193749         2.000608
 H        -1.207231        -0.051592         3.155613
 H        -3.056191         1.789933         3.256869
 H        -0.704788         3.450952         3.579039
 H         0.975793         2.778911         1.635297
 H         1.153807         1.463918         2.758414
