19
Iteration:  4868charge 0 multiplicity 1
 O        -2.647842         3.834548         1.418580
 C        -1.991390         2.646621         1.634051
 C        -1.506241         1.760150         0.483058
 C        -0.541361         0.913041         1.327635
 O        -0.048164        -0.014049         0.364588
 C        -1.433556         0.519368         2.492907
 C        -2.023012         1.798799         2.947859
 C        -0.809407         2.754653         2.683781
 C         0.337120         2.015988         1.996788
 H        -2.092570         4.494924         1.893734
 H        -2.312044         1.077850         0.161707
 H        -1.025871         2.117633        -0.425030
 H         0.505356        -0.716583         0.902819
 H        -2.271092        -0.192972         2.338318
 H        -0.800620         0.080337         3.314039
 H        -2.828816         2.045422         3.577815
 H        -0.635637         3.729538         3.171223
 H         0.639377         2.832090         1.222904
 H         1.238168         1.897169         2.618528
