19
Iteration:   731
 O        -2.729327         3.913790         1.552504
 C        -1.819831         2.766450         1.666390
 C        -1.312750         2.144081         0.310480
 C        -0.580104         0.983264         1.198787
 O         0.207219        -0.106743         0.694084
 C        -1.680353         0.405174         2.070880
 C        -2.164962         1.710882         2.702488
 C        -0.852648         2.640644         2.807113
 C         0.313139         1.773086         2.283042
 H        -3.228225         3.866704         2.429701
 H        -2.129242         1.959966        -0.501084
 H        -0.561414         2.896920        -0.095693
 H         0.398168         0.077274        -0.295249
 H        -2.458941        -0.119249         1.442454
 H        -1.165937        -0.180102         2.848451
 H        -2.868073         1.857688         3.562901
 H        -0.659408         3.511527         3.470115
 H         1.126838         2.414828         1.765050
 H         0.747211         1.115097         3.071953
