19
Iteration:  2813charge 0 multiplicity 1
 O        -2.731298         3.940084         1.372871
 C        -1.955341         2.727876         1.717099
 C        -1.430611         1.961547         0.410563
 C        -0.606073         0.909286         1.220294
 O         0.140031         0.014629         0.420303
 C        -1.565213         0.459042         2.384768
 C        -1.972877         1.849719         2.901619
 C        -0.739367         2.710797         2.742077
 C         0.266141         1.800338         2.190843
 H        -3.582378         3.580788         1.107208
 H        -2.173120         1.533140        -0.355545
 H        -0.722826         2.515144        -0.286853
 H         0.498332        -0.722569         1.059644
 H        -2.450917        -0.126673         1.991860
 H        -1.019022        -0.194949         3.139221
 H        -2.669393         1.790874         3.726223
 H        -0.511574         3.359049         3.574643
 H         1.105764         2.291747         1.749232
 H         0.701792         1.089448         2.897497
