19
Iteration:  1986charge 0 multiplicity 1
 O        -2.775730         3.876305         1.599230
 C        -1.922997         2.812692         1.644800
 C        -1.460409         2.013740         0.332300
 C        -0.573551         0.994077         1.205535
 O         0.229845        -0.134409         0.700454
 C        -1.577163         0.443895         2.253364
 C        -1.985262         1.797794         2.798181
 C        -0.807901         2.741512         2.659096
 C         0.316325         1.832060         2.065401
 H        -3.638794         3.672857         2.054574
 H        -2.288207         1.490514        -0.171553
 H        -0.706554         2.666774        -0.203348
 H        -0.400469        -0.724800         0.205976
 H        -2.429863        -0.274177         1.886693
 H        -0.909373        -0.128789         2.909061
 H        -2.638724         1.821875         3.704724
 H        -0.477020         3.747036         2.960254
 H         1.165274         2.324141         1.562381
 H         0.870788         1.310930         2.906299
