19
Iteration:  4885charge 0 multiplicity 1
 O        -2.659106         3.817459         1.400787
 C        -1.905608         2.726785         1.693577
 C        -1.531045         1.873489         0.504737
 C        -0.591904         0.933569         1.247821
 O        -0.034605        -0.154959         0.472695
 C        -1.420323         0.365907         2.506063
 C        -2.002622         1.776370         2.875053
 C        -0.822622         2.784808         2.702827
 C         0.328400         2.162878         1.918533
 H        -2.183926         4.629033         1.713827
 H        -2.424912         1.535810        -0.031366
 H        -1.019259         2.636700        -0.111118
 H         0.420290        -0.801139         1.168297
 H        -2.094558        -0.420936         2.084142
 H        -0.760390        -0.023516         3.266242
 H        -2.683461         1.791643         3.742628
 H        -0.911402         3.632660         3.346741
 H         0.702037         2.735135         1.086497
 H         1.071819         1.593803         2.476342
