19
Iteration:  2430
 O        -2.838935         3.821672         1.409759
 C        -1.865998         2.806401         1.644450
 C        -1.400636         1.978507         0.463375
 C        -0.561457         0.909767         1.268941
 O         0.107390        -0.063214         0.507956
 C        -1.547095         0.498614         2.407612
 C        -2.023870         1.870547         2.827754
 C        -0.722918         2.707718         2.743873
 C         0.392497         1.818749         2.098525
 H        -3.778702         3.552952         1.593046
 H        -2.242035         1.326162         0.055163
 H        -0.843429         2.571630        -0.303027
 H        -0.647959        -0.441816        -0.071950
 H        -2.318557        -0.147662         2.083581
 H        -0.947190        -0.004759         3.175445
 H        -2.706762         1.942975         3.713081
 H        -0.408488         3.578644         3.307244
 H         1.082687         2.410102         1.532529
 H         0.950395         1.397033         2.884477
