19
Iteration:  4991
 O        -2.628481         3.939705         1.320273
 C        -2.021349         2.794829         1.788854
 C        -1.522349         1.923598         0.534248
 C        -0.567126         0.949245         1.197122
 O        -0.029446        -0.200294         0.484806
 C        -1.416181         0.415936         2.379923
 C        -1.955649         1.776495         2.932418
 C        -0.841600         2.770363         2.762855
 C         0.373028         1.978729         1.971990
 H        -3.578870         3.618446         1.330607
 H        -2.392947         1.537544        -0.069494
 H        -0.954016         2.559929        -0.188584
 H         0.649021        -0.536080         1.194169
 H        -2.199636        -0.181693         2.008781
 H        -0.790512        -0.228922         3.112035
 H        -2.565166         1.768027         3.820070
 H        -0.740328         3.656999         3.314050
 H         0.986821         2.600232         1.301300
 H         1.199404         1.467986         2.589481
