19
Iteration:  4721charge 0 multiplicity 1
 O        -2.780421         3.848995         1.370310
 C        -1.900884         2.792355         1.662075
 C        -1.627245         1.725720         0.594742
 C        -0.593689         0.814671         1.363887
 O         0.144461         0.059385         0.406409
 C        -1.645588         0.303188         2.458651
 C        -1.869700         1.865772         2.963441
 C        -0.688624         2.863396         2.593634
 C         0.329328         1.974695         1.960413
 H        -2.361286         4.616855         1.738309
 H        -2.520141         1.205709         0.322367
 H        -1.143400         2.096401        -0.291715
 H         0.418577        -0.790722         0.532675
 H        -2.584363        -0.075598         1.989352
 H        -1.263077        -0.273017         3.267000
 H        -2.256724         2.171135         3.938087
 H        -0.389050         3.713809         3.265895
 H         0.772285         2.428152         1.030010
 H         1.130574         1.697835         2.719847
