19
Iteration:   545charge 0 multiplicity 1
 O        -2.632011         3.880205         1.404705
 C        -1.824701         2.758878         1.740004
 C        -1.275840         2.015344         0.499009
 C        -0.490669         0.935089         1.267794
 O         0.134613         0.031709         0.349387
 C        -1.646189         0.327191         2.182904
 C        -2.243965         1.724128         2.724201
 C        -0.905694         2.610288         2.886187
 C         0.263656         1.844224         2.362300
 H        -2.709279         4.622406         2.064566
 H        -2.203972         1.574149        -0.086905
 H        -0.749601         2.801997        -0.156907
 H         0.872378         0.467531        -0.230812
 H        -2.513974        -0.187658         1.658079
 H        -1.357562        -0.181909         3.117383
 H        -3.002909         1.970860         3.496555
 H        -0.873546         3.522707         3.515217
 H         0.900481         2.461171         1.671963
 H         0.755301         1.168591         3.040696
