19
Iteration:  4374charge 0 multiplicity 1
 O        -2.834724         3.763138         1.371929
 C        -1.917453         2.789682         1.618460
 C        -1.441133         1.971216         0.518496
 C        -0.536857         0.971707         1.288373
 O        -0.231020        -0.132525         0.441361
 C        -1.368946         0.530298         2.564953
 C        -1.827441         1.854503         2.924642
 C        -0.685837         2.787584         2.682577
 C         0.384642         1.892045         1.945064
 H        -3.705814         3.254702         1.410864
 H        -2.198624         1.421181        -0.093843
 H        -0.757680         2.550225        -0.213559
 H         0.237699        -0.781541         0.872721
 H        -2.244580        -0.183451         2.505171
 H        -0.748781         0.146335         3.369936
 H        -2.637700         1.884892         3.732911
 H        -0.594011         3.629493         3.375255
 H         0.934423         2.402131         1.004875
 H         1.150695         1.427189         2.613802
