19
Iteration:  3521charge 0 multiplicity 1
 O        -2.815633         3.807429         1.486099
 C        -1.895990         2.782813         1.608702
 C        -1.460973         1.889795         0.445469
 C        -0.511172         0.970207         1.305862
 O         0.046707         0.049580         0.391970
 C        -1.526675         0.414541         2.409664
 C        -2.012218         1.787975         2.835353
 C        -0.754050         2.769591         2.740761
 C         0.392149         1.872104         2.189932
 H        -2.658894         4.299583         0.663322
 H        -2.333362         1.343034        -0.036346
 H        -0.900884         2.336331        -0.401675
 H         0.071044        -0.863665         0.893848
 H        -2.442928        -0.065323         1.894188
 H        -1.111668        -0.252239         3.224145
 H        -2.867115         1.872971         3.567657
 H        -0.553897         3.612665         3.471791
 H         1.121379         2.348473         1.500281
 H         0.879781         1.219739         2.853942
