19
Iteration:  1791charge 0 multiplicity 1
 O        -2.683680         3.841692         1.287256
 C        -1.900919         2.712751         1.735397
 C        -1.471097         1.881183         0.502448
 C        -0.535577         0.973760         1.256897
 O         0.032833         0.013794         0.372320
 C        -1.603849         0.441168         2.305460
 C        -2.044146         1.783663         2.908064
 C        -0.802891         2.703405         2.795648
 C         0.392179         1.919420         2.210533
 H        -2.635339         4.690993         1.793512
 H        -2.378384         1.552334         0.048600
 H        -0.851080         2.409060        -0.274515
 H         0.604897        -0.662265         0.914926
 H        -2.308889        -0.104174         1.695412
 H        -1.184018        -0.176748         3.058161
 H        -2.907223         1.864569         3.563670
 H        -0.620680         3.405213         3.562863
 H         1.090327         2.536499         1.684331
 H         0.871394         1.214373         2.922977
