19
Iteration:  4575charge 0 multiplicity 1
 O        -2.735687         3.896312         1.511110
 C        -1.997078         2.671245         1.623042
 C        -1.512726         1.799145         0.460865
 C        -0.513642         0.969556         1.294473
 O        -0.077618        -0.179014         0.464853
 C        -1.419671         0.429382         2.525938
 C        -1.969626         1.792674         2.890721
 C        -0.835428         2.783082         2.573106
 C         0.376664         2.069259         1.936204
 H        -2.062744         4.482613         1.893395
 H        -2.321954         1.262530        -0.095738
 H        -1.009843         2.387695        -0.322206
 H         0.515670        -0.675060         1.166550
 H        -2.232758        -0.119494         2.138557
 H        -0.835789        -0.129046         3.291605
 H        -2.254279         2.239196         3.876828
 H        -0.699790         3.650746         3.233001
 H         0.659566         2.759778         1.155128
 H         1.372148         1.884803         2.497444
