19
Iteration:  4316charge 0 multiplicity 1
 O        -2.802794         3.955208         1.620449
 C        -1.855227         2.814324         1.640849
 C        -1.730469         1.700395         0.463937
 C        -0.655613         0.919528         1.197472
 O         0.174438        -0.058426         0.556513
 C        -1.513937         0.483182         2.475684
 C        -1.929530         1.946013         2.920121
 C        -0.624276         2.692958         2.536546
 C         0.324571         1.874736         1.885933
 H        -3.288288         3.970010         0.791819
 H        -2.602752         1.085825         0.181611
 H        -1.169653         2.101323        -0.376729
 H         0.786710        -0.530385         1.295145
 H        -2.448869        -0.074287         2.236894
 H        -0.998199         0.038084         3.304790
 H        -2.506695         2.065569         3.783895
 H        -0.182176         3.523691         3.079678
 H         0.885128         2.386681         1.030467
 H         1.065439         1.319708         2.506720
