19
Iteration:  4247
 O        -2.813645         3.753151         1.369394
 C        -1.842988         2.751940         1.689684
 C        -1.479563         1.923321         0.473387
 C        -0.572689         0.947953         1.275708
 O        -0.223878        -0.235886         0.536175
 C        -1.406747         0.506058         2.509917
 C        -1.978376         1.844249         2.838180
 C        -0.635844         2.854622         2.628514
 C         0.414968         1.969065         2.012140
 H        -3.422632         3.637404         2.090147
 H        -2.357815         1.401779         0.087705
 H        -0.982611         2.678758        -0.191878
 H         0.430945         0.018260        -0.212037
 H        -1.865070        -0.358238         2.079253
 H        -0.543947         0.273544         3.226246
 H        -2.661583         2.136400         3.727358
 H        -0.385913         3.671969         3.326554
 H         1.100170         2.590235         1.490591
 H         0.965624         1.498172         2.860169
