19
Iteration:  4129
 O        -2.776639         3.875620         1.471114
 C        -1.875782         2.758411         1.654026
 C        -1.427764         1.848140         0.496637
 C        -0.568510         0.893976         1.291454
 O        -0.108542        -0.118338         0.425494
 C        -1.533698         0.436247         2.427774
 C        -1.917635         1.820897         2.956463
 C        -0.704376         2.839625         2.597180
 C         0.415106         2.011163         2.034179
 H        -3.635782         3.487516         1.143119
 H        -2.183515         1.287572        -0.073549
 H        -0.789403         2.411272        -0.142072
 H         0.448711        -0.743243         1.017274
 H        -2.386677        -0.016253         1.956668
 H        -1.047751        -0.252305         3.103726
 H        -2.536419         1.968337         3.879707
 H        -0.828653         3.730869         3.237428
 H         1.042819         2.621985         1.352160
 H         1.103355         1.491835         2.792230
