19
Iteration:  3441charge 0 multiplicity 1
 O        -2.801389         3.848313         1.424614
 C        -1.887652         2.813794         1.682913
 C        -1.398161         1.969646         0.507937
 C        -0.499472         0.926766         1.248025
 O         0.056968        -0.158780         0.484410
 C        -1.570289         0.430996         2.293813
 C        -2.020527         1.745560         2.834135
 C        -0.823325         2.774023         2.746653
 C         0.358636         1.955353         2.092238
 H        -2.868884         4.525178         2.111864
 H        -2.385861         1.526837         0.128508
 H        -0.979335         2.605674        -0.276680
 H         0.984433        -0.423554         0.887713
 H        -2.412888        -0.252148         1.764899
 H        -1.001076        -0.284930         2.987243
 H        -2.926292         1.997988         3.340373
 H        -0.749530         3.488723         3.551809
 H         1.000819         2.431781         1.451141
 H         1.009372         1.355924         2.742373
