19
Iteration:   611charge 0 multiplicity 1
 O        -2.807756         3.896685         1.682955
 C        -1.818470         2.821125         1.680879
 C        -1.281960         2.120727         0.418902
 C        -0.495551         0.922124         1.215235
 O         0.180532        -0.103007         0.609033
 C        -1.734382         0.419231         2.043444
 C        -2.091109         1.759413         2.615734
 C        -0.845128         2.601437         2.841583
 C         0.268700         1.773043         2.282546
 H        -2.696626         4.407686         0.865269
 H        -2.126759         1.616747        -0.191411
 H        -0.592690         2.684876        -0.295061
 H         1.003390         0.234261         0.346265
 H        -2.438587         0.021521         1.288183
 H        -1.405927        -0.362289         2.729306
 H        -2.859820         1.902898         3.340003
 H        -0.891029         3.406532         3.561250
 H         0.796843         2.484723         1.617351
 H         0.893802         1.293148         3.012070
