19
Iteration:  2793charge 0 multiplicity 1
 O        -2.658286         3.936120         1.430811
 C        -1.878902         2.826701         1.673269
 C        -1.479059         1.969689         0.583481
 C        -0.547892         0.887755         1.282984
 O         0.170619         0.032889         0.422755
 C        -1.600838         0.362076         2.388980
 C        -2.099903         1.803162         2.810930
 C        -0.854731         2.718369         2.681436
 C         0.332350         1.810157         2.100873
 H        -3.430156         3.751783         0.836589
 H        -2.340025         1.486198         0.104343
 H        -0.962551         2.458307        -0.163382
 H         0.298471        -0.768514         1.007889
 H        -2.192101        -0.495661         2.008237
 H        -1.011999        -0.229518         3.186044
 H        -2.774713         1.967030         3.627395
 H        -0.604042         3.574081         3.311502
 H         1.095707         2.237484         1.332942
 H         0.950665         1.392826         2.932864
