19
Iteration:  2104charge 0 multiplicity 1
 O        -2.701467         3.922490         1.594077
 C        -1.956209         2.738572         1.599496
 C        -1.471150         1.932705         0.474670
 C        -0.526121         0.910245         1.326765
 O         0.240910        -0.041421         0.561725
 C        -1.712760         0.396982         2.320494
 C        -2.009458         1.759424         2.864266
 C        -0.785484         2.800622         2.588149
 C         0.352354         1.914479         2.058050
 H        -3.623095         3.684757         1.491292
 H        -2.076332         1.305760        -0.226967
 H        -0.687636         2.485294        -0.167438
 H        -0.347450        -0.586434        -0.079317
 H        -2.537683        -0.206790         1.874796
 H        -1.230144        -0.269581         3.048569
 H        -2.723680         2.128686         3.620258
 H        -0.641896         3.646417         3.242958
 H         1.118376         2.235694         1.300313
 H         1.108403         1.450968         2.738866
