19
Iteration:   195
 O        -2.777122         3.809531         1.613447
 C        -1.783286         2.817232         1.641958
 C        -1.331684         2.077259         0.419718
 C        -0.512631         0.946973         1.218395
 O         0.211265        -0.066166         0.477926
 C        -1.667329         0.497570         2.251966
 C        -2.113552         1.821776         2.767180
 C        -0.799299         2.658051         2.762962
 C         0.291497         1.802472         2.173491
 H        -3.604075         3.340843         1.446632
 H        -2.210951         1.764279        -0.325489
 H        -0.542629         2.707154        -0.038964
 H        -0.367280        -0.815040         0.440971
 H        -2.419888        -0.127384         1.612518
 H        -1.325091        -0.139121         3.081275
 H        -2.951444         2.045423         3.478700
 H        -0.670423         3.539638         3.426558
 H         1.053867         2.603476         1.801178
 H         0.773871         1.135802         2.897628
