19
Iteration:  3093charge 0 multiplicity 1
 O        -2.682656         3.828825         1.547558
 C        -1.836118         2.799203         1.689066
 C        -1.417791         1.974447         0.464828
 C        -0.577439         0.913917         1.266613
 O         0.167112        -0.052487         0.529109
 C        -1.700162         0.499469         2.229400
 C        -2.103836         1.772389         2.813802
 C        -0.766495         2.722010         2.741522
 C         0.317083         1.860475         2.082182
 H        -3.390652         3.610401         0.892815
 H        -2.245281         1.669695        -0.239658
 H        -0.794591         2.646175        -0.155827
 H         0.756002        -0.556226         1.052091
 H        -2.531730        -0.043335         1.759277
 H        -1.243850        -0.230183         2.942169
 H        -2.851234         1.921761         3.570428
 H        -0.760201         3.571156         3.417116
 H         0.998519         2.517653         1.475605
 H         1.007878         1.371020         2.723844
