19
Iteration:   549
 O        -2.672294         3.913671         1.437342
 C        -1.855222         2.776420         1.723440
 C        -1.264428         2.033432         0.481676
 C        -0.505521         0.923590         1.285322
 O         0.153675         0.014282         0.361032
 C        -1.656499         0.322693         2.217958
 C        -2.248011         1.700401         2.694663
 C        -0.882434         2.618190         2.860530
 C         0.280064         1.832623         2.336969
 H        -2.640342         4.617135         2.093627
 H        -2.096974         1.671528        -0.018602
 H        -0.649331         2.611436        -0.154753
 H         0.799721         0.358768        -0.199446
 H        -2.382472        -0.102394         1.566451
 H        -1.411483        -0.384812         3.054100
 H        -2.927149         2.061130         3.434936
 H        -0.974355         3.467786         3.519742
 H         0.936763         2.551282         1.818656
 H         0.902833         1.206261         3.009129
