19
Iteration:  3137
 O        -2.709127         3.897290         1.544408
 C        -1.904693         2.760025         1.589992
 C        -1.354379         1.969605         0.416736
 C        -0.556348         0.983281         1.269269
 O         0.128360        -0.026083         0.508341
 C        -1.544794         0.403634         2.279834
 C        -2.106628         1.824471         2.750182
 C        -0.811279         2.697452         2.677696
 C         0.325795         1.856567         2.227277
 H        -3.535029         3.633538         2.023397
 H        -2.231543         1.506602        -0.108400
 H        -0.707700         2.429285        -0.373201
 H        -0.200595        -0.837589         0.810797
 H        -2.253784        -0.225546         1.758288
 H        -1.196098        -0.161369         3.113434
 H        -2.800155         1.983945         3.585745
 H        -0.721538         3.537428         3.346572
 H         1.148620         2.302488         1.650270
 H         0.899917         1.361994         2.921322
