19
Iteration:  3106
 O        -2.748590         3.953991         1.550529
 C        -1.972710         2.751936         1.690913
 C        -1.357494         2.049873         0.443305
 C        -0.584762         0.930746         1.208328
 O         0.241625        -0.129605         0.510717
 C        -1.650655         0.393138         2.225659
 C        -2.001369         1.834415         2.876263
 C        -0.822350         2.739630         2.646502
 C         0.289197         1.839426         2.129674
 H        -3.569168         3.630139         1.169877
 H        -2.137471         1.562869        -0.086098
 H        -0.651434         2.646054        -0.215407
 H         0.446608        -0.670295         1.375548
 H        -2.487489         0.019905         1.558148
 H        -1.330865        -0.447581         2.981584
 H        -2.556252         1.975704         3.811492
 H        -0.491164         3.452145         3.378077
 H         1.064680         2.338284         1.506281
 H         0.704564         1.240918         2.998787
