19
Iteration:  4819charge 0 multiplicity 1
 O        -2.941465         3.685608         1.523342
 C        -1.864516         2.810233         1.665462
 C        -1.541802         1.897834         0.461470
 C        -0.608234         0.918550         1.206003
 O         0.103672        -0.093419         0.522535
 C        -1.555300         0.510490         2.397722
 C        -1.858087         1.921958         2.958830
 C        -0.655037         2.820803         2.650575
 C         0.309880         1.820559         1.947007
 H        -2.686168         4.432674         0.980006
 H        -2.371425         1.394801        -0.033338
 H        -1.012599         2.553741        -0.251030
 H         0.832222        -0.300119         1.053335
 H        -2.451558         0.035973         1.950587
 H        -1.112706        -0.165434         3.120486
 H        -2.427381         2.330682         3.842447
 H        -0.305640         3.749653         3.151781
 H         1.096718         2.319050         1.375650
 H         0.784786         1.161231         2.740781
