19
Iteration:  1516charge 0 multiplicity 1
 O        -2.856218         3.785003         1.459165
 C        -1.855109         2.781857         1.700084
 C        -1.351294         1.962146         0.504243
 C        -0.542445         0.880793         1.221757
 O         0.182145        -0.042983         0.461782
 C        -1.721789         0.519053         2.343589
 C        -2.079891         1.893578         2.878069
 C        -0.753249         2.677019         2.799674
 C         0.410396         1.805961         2.089888
 H        -2.373147         4.492645         0.968697
 H        -2.195539         1.651288        -0.084674
 H        -0.668392         2.525264        -0.230572
 H        -0.508155        -0.546173        -0.138511
 H        -2.421661        -0.118154         1.784634
 H        -1.299671         0.026555         3.188244
 H        -2.850217         2.095991         3.639880
 H        -0.565121         3.434105         3.527920
 H         1.008411         2.319088         1.412264
 H         1.054299         1.398473         2.864072
