19
Iteration:  4131charge 0 multiplicity 1
 O        -2.772116         3.883283         1.481123
 C        -1.882421         2.759735         1.649765
 C        -1.442164         1.863232         0.510651
 C        -0.553560         0.884442         1.288903
 O        -0.105661        -0.125066         0.424189
 C        -1.538126         0.425776         2.458031
 C        -1.930395         1.813998         2.934687
 C        -0.713876         2.833621         2.595164
 C         0.425705         2.017634         2.021959
 H        -3.561891         3.510181         1.070192
 H        -2.158118         1.303628        -0.124396
 H        -0.777499         2.446858        -0.104352
 H         0.414327        -0.800579         1.013952
 H        -2.350279        -0.070912         1.927487
 H        -0.991263        -0.213995         3.092784
 H        -2.544895         1.937731         3.899940
 H        -0.773881         3.776007         3.177366
 H         1.037138         2.666907         1.366408
 H         1.039779         1.536314         2.791907
