19
Iteration:  3818
 O        -2.919987         3.833460         1.623014
 C        -1.892642         2.843597         1.656368
 C        -1.432837         1.861866         0.414968
 C        -0.478895         0.909357         1.232418
 O         0.036381        -0.155980         0.587430
 C        -1.607547         0.511631         2.226394
 C        -1.986164         1.910764         2.774945
 C        -0.710130         2.672482         2.752544
 C         0.402653         1.936632         2.087998
 H        -2.894422         4.146304         0.676229
 H        -2.179667         1.209944        -0.008787
 H        -0.824062         2.409060        -0.322338
 H         0.953021        -0.281759         0.771530
 H        -2.439987        -0.023948         1.736591
 H        -1.296902        -0.188178         3.044452
 H        -2.732127         2.211957         3.499006
 H        -0.533131         3.537137         3.423983
 H         1.069263         2.529587         1.447968
 H         1.146740         1.252964         2.735198
