19
Iteration:  4701charge 0 multiplicity 1
 O        -2.781573         3.894030         1.421251
 C        -1.995511         2.714647         1.688715
 C        -1.558651         1.782773         0.517295
 C        -0.535712         0.937992         1.277376
 O         0.041277        -0.095486         0.441696
 C        -1.483230         0.469212         2.486048
 C        -1.923658         1.839921         2.956866
 C        -0.744904         2.759382         2.552204
 C         0.403597         1.973394         1.958583
 H        -2.517767         4.570804         2.087323
 H        -2.324984         1.160141         0.097565
 H        -1.051272         2.365360        -0.238115
 H         0.279673        -0.837392         1.055866
 H        -2.415500         0.005358         2.019725
 H        -1.047399        -0.175610         3.232400
 H        -2.687269         1.940411         3.756418
 H        -0.703780         3.689366         3.158600
 H         0.953112         2.601589         1.192846
 H         1.088063         1.575225         2.684186
