19
Iteration:  2330
 O        -2.612320         3.911984         1.433114
 C        -1.960636         2.622324         1.676230
 C        -1.470576         1.889116         0.467918
 C        -0.590878         0.947313         1.283791
 O         0.095239         0.067252         0.463700
 C        -1.586584         0.376241         2.453482
 C        -1.937003         1.792200         2.901286
 C        -0.803801         2.723832         2.638577
 C         0.297718         1.977042         2.011723
 H        -3.518907         3.690175         1.083586
 H        -2.276270         1.212909        -0.047981
 H        -0.904086         2.629125        -0.139847
 H         0.116953        -0.800184         0.854813
 H        -2.406994        -0.222536         2.201456
 H        -1.139923        -0.097580         3.328580
 H        -2.540986         1.926534         3.765993
 H        -0.614148         3.537236         3.344737
 H         1.021028         2.396744         1.375765
 H         0.839393         1.533170         2.790733
