19
Iteration:  3109charge 0 multiplicity 1
 O        -2.764719         3.980506         1.548286
 C        -1.996957         2.769863         1.676272
 C        -1.349388         2.035292         0.442945
 C        -0.549592         0.948171         1.202386
 O         0.237108        -0.134670         0.523229
 C        -1.643161         0.374535         2.224812
 C        -1.961426         1.813527         2.879716
 C        -0.813904         2.723023         2.638112
 C         0.261552         1.844236         2.134394
 H        -3.656760         3.697299         1.254318
 H        -2.111064         1.586281        -0.166610
 H        -0.712760         2.674562        -0.194162
 H         0.371266        -0.658779         1.278015
 H        -2.548112        -0.007532         1.645812
 H        -1.369040        -0.443388         2.973976
 H        -2.584685         1.999212         3.786040
 H        -0.528369         3.499112         3.362468
 H         1.155859         2.176468         1.573795
 H         0.740177         1.248071         3.063866
