19
Iteration:  4907
 O        -2.914086         3.895025         1.430851
 C        -1.952914         2.781105         1.698058
 C        -1.502061         1.923119         0.475712
 C        -0.545413         0.925627         1.228840
 O         0.028708        -0.125540         0.606630
 C        -1.477886         0.463428         2.354139
 C        -1.869096         1.817181         2.918364
 C        -0.768131         2.724732         2.634812
 C         0.397118         1.892681         1.946947
 H        -2.409171         4.703900         1.541711
 H        -2.286093         1.291998         0.049946
 H        -1.037203         2.591372        -0.289656
 H         0.393099        -0.746202         1.174754
 H        -2.311714        -0.193335         1.994767
 H        -0.808404        -0.069358         3.019084
 H        -2.541716         1.838656         3.758272
 H        -0.479457         3.493146         3.314319
 H         0.883172         2.373121         1.138716
 H         1.047108         1.470839         2.721899
