19
Iteration:   772charge 0 multiplicity 1
 O        -2.619472         3.925117         1.405400
 C        -1.860078         2.759573         1.680141
 C        -1.253035         2.017719         0.453024
 C        -0.545103         0.912685         1.224695
 O         0.092817         0.042017         0.366716
 C        -1.702154         0.358245         2.269550
 C        -2.125100         1.728519         2.851214
 C        -0.866215         2.647588         2.860713
 C         0.324358         1.853500         2.407775
 H        -3.432249         3.591082         1.050312
 H        -2.039724         1.672428        -0.212254
 H        -0.508159         2.492652        -0.098927
 H         0.643387         0.415156        -0.358669
 H        -2.592579        -0.114648         1.698507
 H        -1.341428        -0.480054         2.845167
 H        -3.055030         1.729083         3.468302
 H        -0.975460         3.506594         3.535722
 H         0.833560         2.671559         1.879669
 H         0.904546         1.112487         2.986467
