19
Iteration:  1414
 O        -2.760496         3.768720         1.354289
 C        -1.942749         2.762915         1.725538
 C        -1.405498         2.042137         0.568585
 C        -0.543910         0.986713         1.294643
 O         0.064073        -0.015404         0.398308
 C        -1.596399         0.499792         2.305185
 C        -2.015942         1.804655         2.923183
 C        -0.766261         2.707035         2.737381
 C         0.396242         1.760751         2.234904
 H        -2.203036         4.129288         0.639658
 H        -2.136019         1.526478        -0.190417
 H        -0.922663         2.616072        -0.272830
 H        -0.572376        -0.469025        -0.085604
 H        -2.448228         0.112339         1.738368
 H        -1.069183        -0.238096         2.893243
 H        -2.856689         1.882090         3.579748
 H        -0.482151         3.513251         3.440307
 H         1.224442         2.321171         1.741380
 H         0.776660         1.186747         3.116150
