19
Iteration:  1503
 O        -2.771524         3.817278         1.566035
 C        -1.879214         2.783975         1.666924
 C        -1.422714         1.993523         0.453953
 C        -0.582117         0.932967         1.315233
 O         0.159852        -0.113957         0.586121
 C        -1.627192         0.439948         2.242372
 C        -2.048855         1.807209         2.763487
 C        -0.737411         2.718624         2.697886
 C         0.341939         1.902707         2.109600
 H        -2.396415         4.643544         1.235179
 H        -2.252091         1.455585        -0.075933
 H        -0.710027         2.653375        -0.165562
 H        -0.418761        -0.575908         0.046516
 H        -2.545609         0.041294         1.778089
 H        -1.325494        -0.338137         2.912266
 H        -2.861590         1.867238         3.519475
 H        -0.529923         3.624250         3.258995
 H         0.936074         2.556407         1.474133
 H         1.035071         1.268051         2.708757
