19
Iteration:  1842charge 0 multiplicity 1
 O        -2.823625         3.959672         1.440281
 C        -1.939748         2.760196         1.664186
 C        -1.413346         2.000564         0.463770
 C        -0.527899         0.941434         1.254968
 O         0.172113        -0.118687         0.597647
 C        -1.591388         0.377984         2.281800
 C        -2.010482         1.858084         2.786009
 C        -0.761138         2.744194         2.673764
 C         0.373205         1.797174         2.135304
 H        -3.474566         3.878778         2.169657
 H        -2.200971         1.525621        -0.177517
 H        -0.699718         2.631042        -0.126738
 H        -0.391005        -0.548103         0.000292
 H        -2.537385        -0.175771         1.849543
 H        -1.025311        -0.206953         3.051030
 H        -2.421887         1.760956         3.773708
 H        -0.734664         3.609514         3.311250
 H         1.085711         2.420607         1.522860
 H         0.953334         1.298375         3.007717
