19
Iteration:  1750
 O        -2.737969         3.886085         1.613850
 C        -1.922415         2.743294         1.622943
 C        -1.380843         1.988814         0.354243
 C        -0.611532         0.893710         1.185747
 O         0.167158        -0.159230         0.633576
 C        -1.627959         0.458047         2.329211
 C        -2.117200         1.779974         2.771622
 C        -0.786292         2.718985         2.695444
 C         0.285320         1.875453         2.058165
 H        -2.082202         4.540264         1.902006
 H        -2.083013         1.456664        -0.352434
 H        -0.713527         2.666631        -0.205138
 H         1.000999         0.248842         0.309216
 H        -2.470951        -0.082923         2.010128
 H        -1.113500        -0.093575         3.171572
 H        -3.022196         1.924732         3.346105
 H        -0.526614         3.512906         3.388330
 H         0.903820         2.673712         1.559180
 H         0.836878         1.412881         2.816159
