19
Iteration:  3781charge 0 multiplicity 1
 O        -2.799029         3.867773         1.449735
 C        -1.926881         2.678315         1.589232
 C        -1.433133         1.866403         0.494054
 C        -0.642005         0.887908         1.268034
 O         0.085553        -0.002696         0.448051
 C        -1.565379         0.376566         2.451212
 C        -1.927709         1.833129         2.906968
 C        -0.771618         2.829531         2.609466
 C         0.257118         1.837828         2.121660
 H        -2.299550         4.699877         1.522578
 H        -2.131216         1.656732        -0.336315
 H        -0.656806         2.373882        -0.067078
 H         0.986250         0.111749         0.528193
 H        -2.386039        -0.269529         2.153560
 H        -0.894429        -0.191850         2.986434
 H        -2.616133         2.110142         3.727496
 H        -0.570763         3.628070         3.303552
 H         1.075698         2.351958         1.589211
 H         0.684185         1.365743         3.043986
