19
Iteration:  4140
 O        -2.727050         3.888269         1.520763
 C        -1.959284         2.738071         1.673993
 C        -1.461158         1.930221         0.523483
 C        -0.518202         0.905738         1.305973
 O        -0.073390        -0.149397         0.430212
 C        -1.494412         0.412078         2.505518
 C        -1.955261         1.817110         2.845973
 C        -0.796325         2.789350         2.591095
 C         0.410466         2.012528         1.975967
 H        -3.334650         3.694645         0.797753
 H        -2.218755         1.490333        -0.144520
 H        -0.868008         2.540420        -0.115748
 H         0.223577        -1.007927         0.942400
 H        -2.186311        -0.314596         2.113956
 H        -0.947717        -0.081833         3.298047
 H        -2.613325         2.025731         3.749161
 H        -0.382138         3.715763         3.030736
 H         1.058440         2.592569         1.278936
 H         1.035080         1.664779         2.878520
