19
Iteration:  3012charge 0 multiplicity 1
 O        -2.691502         3.890005         1.525663
 C        -1.808738         2.793420         1.645162
 C        -1.366709         1.927442         0.467291
 C        -0.612285         0.914984         1.318094
 O         0.142157         0.043204         0.528115
 C        -1.719573         0.397568         2.245051
 C        -2.026689         1.792482         2.744853
 C        -0.755463         2.693433         2.732492
 C         0.311165         1.883196         2.097782
 H        -3.644698         3.660331         1.619976
 H        -2.222450         1.247080         0.157167
 H        -0.719069         2.358551        -0.288946
 H         0.421307        -0.635060         1.083038
 H        -2.523979        -0.060430         1.696900
 H        -1.284965        -0.236134         2.954594
 H        -2.904989         1.865391         3.426012
 H        -0.703120         3.525055         3.412331
 H         0.843579         2.521077         1.406404
 H         0.951110         1.403096         2.770891
