19
Iteration:  4613charge 0 multiplicity 1
 O        -2.792890         3.789703         1.354362
 C        -1.874316         2.725041         1.669289
 C        -1.642225         1.817552         0.460726
 C        -0.672862         0.892484         1.261898
 O         0.048639         0.058052         0.437184
 C        -1.474310         0.459355         2.527212
 C        -1.803025         1.857988         2.958416
 C        -0.668098         2.802967         2.626665
 C         0.265219         1.877272         2.042997
 H        -2.535010         4.628520         1.824749
 H        -2.537488         1.241372         0.372622
 H        -1.270062         2.109509        -0.527851
 H         0.562275        -0.567325         0.958144
 H        -2.315870        -0.248047         2.208123
 H        -0.829027        -0.147623         3.153957
 H        -2.337205         2.316723         3.738721
 H        -0.494021         3.701447         3.229029
 H         0.899733         2.301305         1.230206
 H         0.868255         1.310428         2.680320
