19
Iteration:  1084charge 0 multiplicity 1
 O        -2.698985         4.076634         1.669353
 C        -1.975880         2.760493         1.592913
 C        -1.407281         1.969178         0.365779
 C        -0.539919         0.881536         1.274284
 O         0.165610        -0.073368         0.628005
 C        -1.663417         0.355181         2.243889
 C        -2.087398         1.773780         2.763215
 C        -0.792674         2.689862         2.680098
 C         0.381121         1.812467         2.063785
 H        -3.671703         3.897568         1.471591
 H        -2.046511         1.396266        -0.278787
 H        -0.690728         2.427098        -0.250701
 H         1.169426         0.119528         0.707469
 H        -2.474989        -0.101625         1.672265
 H        -1.378614        -0.299768         3.132490
 H        -2.800618         1.885499         3.545784
 H        -0.774411         3.443632         3.445935
 H         0.955668         2.510770         1.410477
 H         0.948580         1.164845         2.694156
