19
Iteration:   209charge 0 multiplicity 1
 O        -2.603073         3.892992         1.614859
 C        -1.903109         2.753537         1.644589
 C        -1.321056         2.052317         0.378476
 C        -0.650453         0.979160         1.214359
 O         0.204620         0.044385         0.568667
 C        -1.663827         0.365657         2.208429
 C        -2.070290         1.712906         2.761521
 C        -0.842768         2.681815         2.745362
 C         0.272187         1.877084         2.161280
 H        -3.548136         3.585432         1.494092
 H        -2.133646         1.618535        -0.249586
 H        -0.706208         2.610049        -0.324970
 H        -0.043309        -0.914104         0.796263
 H        -2.552752        -0.169607         1.842131
 H        -1.103825        -0.294899         2.882175
 H        -2.799913         1.813774         3.554054
 H        -0.729681         3.500656         3.465162
 H         0.991150         2.299846         1.466085
 H         0.839328         1.295372         2.882449
