19
Iteration:  4945
 O        -2.850112         3.659282         1.662486
 C        -1.767258         2.794443         1.491509
 C        -1.386931         1.844346         0.430465
 C        -0.612343         0.880026         1.364653
 O         0.031780        -0.005031         0.400635
 C        -1.666984         0.509347         2.438957
 C        -1.844408         1.922672         2.899958
 C        -0.681788         2.869729         2.554550
 C         0.289590         1.844502         2.100924
 H        -3.156957         4.195126         0.867424
 H        -2.315288         1.364339         0.058166
 H        -0.930885         2.365556        -0.414150
 H         0.496249        -0.674233         0.948290
 H        -2.622553         0.067605         2.164362
 H        -1.210437        -0.132814         3.238253
 H        -2.788687         2.286771         3.411668
 H        -0.719848         3.854124         3.138004
 H         1.159246         2.262437         1.399211
 H         0.899455         1.359589         2.917870
