19
Iteration:   948
 O        -2.614200         3.967199         1.485014
 C        -1.856153         2.811834         1.684767
 C        -1.437142         2.090582         0.498922
 C        -0.517366         0.877829         1.257070
 O         0.276713        -0.135373         0.589284
 C        -1.647119         0.396309         2.202676
 C        -2.117835         1.758998         2.740668
 C        -0.921826         2.610982         2.751846
 C         0.254267         1.855603         2.129580
 H        -3.317995         3.899343         2.109161
 H        -2.363379         1.606209         0.083122
 H        -0.980115         2.670843        -0.330264
 H         0.274042         0.127842        -0.314106
 H        -2.473442        -0.075867         1.629096
 H        -1.263655        -0.141005         3.048454
 H        -2.797297         1.959211         3.518180
 H        -0.884676         3.410004         3.475072
 H         0.969319         2.426284         1.592437
 H         0.843390         1.380009         2.925103
