19
Iteration:  4788charge 0 multiplicity 1
 O        -2.872368         3.725407         1.674122
 C        -1.877134         2.784930         1.631688
 C        -1.394757         1.935672         0.459280
 C        -0.453711         0.898985         1.365231
 O        -0.158313        -0.209442         0.552056
 C        -1.506993         0.389838         2.367396
 C        -1.980305         1.852556         2.774801
 C        -0.692549         2.880356         2.579802
 C         0.393287         2.044088         1.956417
 H        -3.072262         4.228999         0.840008
 H        -2.056728         1.436768        -0.204675
 H        -0.739058         2.545208        -0.153171
 H         0.721067        -0.600987         0.979522
 H        -2.256592        -0.186915         1.713346
 H        -1.115322        -0.194385         3.145387
 H        -2.591340         2.197490         3.683705
 H        -0.550976         3.835996         3.122495
 H         0.804527         2.661815         1.037083
 H         1.155404         1.773448         2.721676
