19
Iteration:  2443charge 0 multiplicity 1
 O        -2.716669         3.820595         1.431169
 C        -1.901956         2.740778         1.640550
 C        -1.424186         1.925860         0.547166
 C        -0.536634         1.010484         1.285638
 O         0.036873        -0.017254         0.500193
 C        -1.511867         0.429827         2.379739
 C        -1.939423         1.820715         2.815290
 C        -0.786689         2.771533         2.666568
 C         0.345110         1.889463         2.125511
 H        -3.570874         3.446713         1.587485
 H        -2.339479         1.489021         0.065848
 H        -0.858672         2.379434        -0.434463
 H        -0.565786        -0.731109         0.397238
 H        -2.341838        -0.196667         1.995955
 H        -1.032756        -0.165769         3.184194
 H        -2.882127         2.173893         3.222970
 H        -0.714220         3.476860         3.469902
 H         1.074947         2.423257         1.465433
 H         0.861141         1.196767         2.727707
