19
Iteration:  4603charge 0 multiplicity 1
 O        -2.767748         3.835964         1.372992
 C        -1.883649         2.814806         1.659165
 C        -1.651008         1.735066         0.577811
 C        -0.681952         0.897990         1.267280
 O         0.068463         0.014103         0.409692
 C        -1.371325         0.441470         2.520226
 C        -1.936275         1.876289         2.908386
 C        -0.748604         2.799488         2.630651
 C         0.309541         1.859193         1.942172
 H        -2.427185         4.639193         1.855148
 H        -2.581812         1.356492         0.166542
 H        -1.027293         2.185966        -0.239836
 H         0.480603        -0.586984         1.106405
 H        -2.264527        -0.268468         2.396742
 H        -0.648916         0.065418         3.257412
 H        -2.567006         2.000289         3.777812
 H        -0.437208         3.590284         3.330236
 H         0.993904         2.434219         1.248755
 H         0.893248         1.292791         2.604118
