19
Iteration:  1690
 O        -2.749686         3.783265         1.367354
 C        -1.872361         2.801378         1.725308
 C        -1.346168         2.047483         0.520408
 C        -0.602214         0.918560         1.244754
 O         0.085872        -0.048924         0.447441
 C        -1.579584         0.525863         2.347530
 C        -2.073430         1.805730         2.944345
 C        -0.840111         2.643213         2.742509
 C         0.361846         1.798497         2.178430
 H        -2.731564         4.008085         0.444819
 H        -2.042066         1.753770        -0.275110
 H        -0.509363         2.716317         0.071370
 H        -0.305386        -0.015019        -0.361088
 H        -2.368822        -0.065212         1.761865
 H        -1.232041        -0.197559         3.043958
 H        -2.710108         1.867543         3.832128
 H        -0.470409         3.449015         3.452004
 H         1.088162         2.491018         1.771335
 H         0.998309         1.150919         2.897817
