19
Iteration:   822charge 0 multiplicity 1
 O        -2.762193         4.069277         1.624907
 C        -1.885654         2.820518         1.641367
 C        -1.361479         2.039942         0.378074
 C        -0.452234         0.892223         1.293006
 O         0.205560        -0.135684         0.587280
 C        -1.699605         0.358306         2.145433
 C        -2.088911         1.729785         2.732505
 C        -0.893877         2.572986         2.832287
 C         0.324991         1.869641         2.164913
 H        -2.901392         4.315137         0.689910
 H        -2.258872         1.604057        -0.157320
 H        -0.871746         2.766224        -0.422602
 H         1.013026         0.183511         0.225095
 H        -2.443773        -0.200720         1.627805
 H        -1.192853        -0.316545         2.902327
 H        -2.957567         1.815427         3.327387
 H        -0.850644         3.255867         3.672865
 H         1.111829         2.458538         1.630924
 H         0.615554         1.180849         2.979874
