19
Iteration:   606
 O        -2.779074         3.871587         1.680866
 C        -1.814834         2.792523         1.707590
 C        -1.313461         2.152939         0.374554
 C        -0.488087         0.914052         1.217534
 O         0.197190        -0.138078         0.627170
 C        -1.727470         0.470279         2.031892
 C        -2.072412         1.740678         2.645614
 C        -0.863831         2.584843         2.825574
 C         0.244566         1.815918         2.263358
 H        -2.762189         4.560645         0.989860
 H        -2.085036         1.745244        -0.221630
 H        -0.701850         2.778711        -0.239903
 H         1.095238         0.201605         0.252698
 H        -2.523686        -0.006980         1.414816
 H        -1.454629        -0.344396         2.734033
 H        -3.016187         1.994621         3.196857
 H        -0.950345         3.377566         3.574575
 H         0.962090         2.420992         1.647405
 H         0.847882         1.272126         3.053559
