19
Iteration:  4486charge 0 multiplicity 1
 O        -2.789172         3.765991         1.489939
 C        -1.884782         2.637660         1.705130
 C        -1.495793         1.854693         0.510477
 C        -0.542933         0.955511         1.266882
 O        -0.154884        -0.062571         0.415346
 C        -1.492623         0.542147         2.497816
 C        -1.879165         1.846254         2.892111
 C        -0.722896         2.814651         2.559756
 C         0.386621         2.004263         2.042020
 H        -2.581253         3.831841         0.552493
 H        -2.379501         1.360724         0.042169
 H        -0.924432         2.321991        -0.357968
 H         0.524457        -0.655515         0.956272
 H        -2.350756        -0.032652         2.216178
 H        -0.929578         0.008909         3.289579
 H        -2.497838         1.849433         3.728519
 H        -0.615134         3.620987         3.279702
 H         1.117444         2.432340         1.299531
 H         0.983146         1.547756         2.926121
