19
Iteration:  2486
 O        -2.653371         3.975188         1.578281
 C        -1.940412         2.750306         1.623106
 C        -1.513941         1.862025         0.502121
 C        -0.587277         0.915929         1.249646
 O         0.156265        -0.094177         0.532641
 C        -1.557922         0.412348         2.415352
 C        -2.068977         1.786847         2.831505
 C        -0.807591         2.788242         2.674339
 C         0.315222         1.868582         1.935108
 H        -3.332577         3.807324         0.931293
 H        -2.191801         1.493510        -0.302175
 H        -0.906660         2.570228        -0.161308
 H         1.069085        -0.237344         0.961383
 H        -2.253435        -0.075917         1.814926
 H        -1.138758        -0.205109         3.202646
 H        -2.745497         1.972147         3.636258
 H        -0.705048         3.497971         3.482963
 H         0.956259         2.480052         1.297272
 H         0.807904         1.392062         2.700979
