19
Iteration:  4455
 O        -2.817382         3.935655         1.473461
 C        -1.910511         2.801332         1.688164
 C        -1.591998         1.853700         0.503031
 C        -0.567098         0.838577         1.263100
 O         0.039924        -0.187202         0.517721
 C        -1.386128         0.441947         2.479772
 C        -1.966232         1.825042         2.863097
 C        -0.737718         2.723187         2.613959
 C         0.288270         2.016180         1.880239
 H        -2.162910         4.677681         1.536843
 H        -2.586384         1.511264         0.154819
 H        -1.062988         2.272997        -0.346961
 H         0.627156        -0.551200         1.133399
 H        -2.121738        -0.286244         2.194113
 H        -0.764274         0.109043         3.375753
 H        -2.610896         1.974212         3.688091
 H        -0.602091         3.480579         3.402951
 H         0.709134         2.579745         1.086852
 H         1.135099         1.652453         2.521875
