19
Iteration:   884
 O        -2.845019         3.842095         1.452516
 C        -1.856348         2.828733         1.667178
 C        -1.284153         2.074339         0.539487
 C        -0.549453         0.891344         1.221827
 O         0.124397        -0.146787         0.430782
 C        -1.646515         0.450667         2.168671
 C        -2.083029         1.791320         2.767882
 C        -0.826022         2.694646         2.847362
 C         0.313361         1.821047         2.282607
 H        -2.361942         4.684836         1.444721
 H        -2.120659         1.683162        -0.031772
 H        -0.636926         2.684671        -0.016652
 H         0.950047         0.170756         0.113951
 H        -2.451567        -0.248634         1.810518
 H        -1.139718        -0.223961         2.920576
 H        -2.953080         1.877758         3.372806
 H        -0.832795         3.536288         3.517896
 H         1.214183         2.339934         1.852209
 H         0.714224         1.138115         3.049245
