19
Iteration:  1935charge 0 multiplicity 1
 O        -2.641953         3.818250         1.379329
 C        -1.844291         2.742328         1.670807
 C        -1.486091         1.909427         0.472364
 C        -0.561254         0.971154         1.253181
 O        -0.018667         0.100412         0.399430
 C        -1.520838         0.410862         2.431189
 C        -2.001862         1.773704         2.854506
 C        -0.836534         2.734885         2.754119
 C         0.358358         1.875086         2.173806
 H        -3.385304         3.560307         0.814067
 H        -2.373145         1.409048         0.071419
 H        -0.958054         2.493996        -0.255880
 H         0.528375        -0.677455         0.845181
 H        -2.341753        -0.067417         1.959124
 H        -1.016983        -0.279552         3.140635
 H        -2.816169         2.035641         3.575596
 H        -0.623514         3.478745         3.576890
 H         1.081336         2.524251         1.673302
 H         0.862104         1.224511         2.922690
