19
Iteration:  2119
 O        -2.721408         3.868788         1.658223
 C        -1.946747         2.717723         1.664010
 C        -1.377522         1.941974         0.361895
 C        -0.645594         0.900778         1.222491
 O         0.247155        -0.021430         0.708342
 C        -1.619581         0.415609         2.284233
 C        -1.967748         1.853040         2.823656
 C        -0.751606         2.761563         2.578582
 C         0.310592         1.861919         1.990631
 H        -3.703048         3.649084         1.650505
 H        -2.355826         1.623459        -0.261457
 H        -0.819898         2.706938        -0.237564
 H        -0.284316        -0.832020         0.377758
 H        -2.532608         0.199499         1.695615
 H        -1.374532        -0.379554         2.995907
 H        -2.709863         1.907267         3.602439
 H        -0.659649         3.718503         3.112097
 H         0.925454         2.455649         1.354538
 H         0.772360         1.366115         2.858975
