19
Iteration:  4555
 O        -2.819995         3.764290         1.572974
 C        -1.888371         2.718960         1.693342
 C        -1.497481         1.848706         0.427682
 C        -0.593167         0.908839         1.280135
 O        -0.061302        -0.149551         0.573736
 C        -1.490912         0.516339         2.374855
 C        -1.838349         1.783240         2.928564
 C        -0.737072         2.877587         2.584677
 C         0.339631         2.041246         1.893980
 H        -2.329968         4.557257         1.379780
 H        -2.364253         1.322722        -0.019155
 H        -1.023379         2.291900        -0.406952
 H         0.483047        -0.729851         1.198541
 H        -2.316302        -0.090091         1.997869
 H        -0.842097        -0.057669         3.077122
 H        -2.838043         2.008150         3.448721
 H        -0.531697         3.872820         2.974983
 H         1.005016         2.513268         1.225896
 H         0.991612         1.531469         2.690601
