19
Iteration:  2659charge 0 multiplicity 1
 O        -2.675026         3.935934         1.458710
 C        -1.898399         2.829026         1.643964
 C        -1.370160         2.001188         0.471394
 C        -0.586902         0.896946         1.238620
 O         0.077316        -0.073029         0.454570
 C        -1.505177         0.446967         2.393262
 C        -2.046750         1.735299         2.818017
 C        -0.862172         2.695721         2.764983
 C         0.298812         1.894988         2.086438
 H        -3.542925         3.693400         1.012843
 H        -2.300352         1.589781         0.052293
 H        -0.777105         2.439537        -0.203740
 H         0.194611        -0.828454         1.044016
 H        -2.170101        -0.374258         2.035562
 H        -0.952980        -0.101923         3.176053
 H        -2.783634         2.016253         3.583592
 H        -0.768556         3.406621         3.625673
 H         0.965183         2.521250         1.486136
 H         1.026424         1.239599         2.678621
