19
Iteration:   527
 O        -2.535965         3.865914         1.259998
 C        -1.926682         2.723940         1.707023
 C        -1.358900         2.054588         0.511362
 C        -0.616632         1.000911         1.255972
 O         0.106354         0.113774         0.400919
 C        -1.611063         0.426708         2.220613
 C        -2.115757         1.650292         2.811906
 C        -0.890732         2.599469         2.901687
 C         0.258395         1.752632         2.326116
 H        -2.807013         4.335186         2.095106
 H        -2.144866         1.649241        -0.026865
 H        -0.676429         2.554134        -0.089410
 H         0.821841         0.630961        -0.129340
 H        -2.302308        -0.127457         1.622543
 H        -1.061705        -0.344471         2.788090
 H        -2.994858         1.707144         3.423884
 H        -0.883127         3.240561         3.777856
 H         1.010258         2.514848         2.182888
 H         0.723542         1.062548         3.062789
