19
Iteration:  3085
 O        -2.673145         3.849826         1.532626
 C        -1.800665         2.732402         1.667362
 C        -1.398886         1.940651         0.457171
 C        -0.543433         0.965707         1.265084
 O         0.068714         0.012286         0.519290
 C        -1.693476         0.433384         2.269573
 C        -2.063258         1.792464         2.760576
 C        -0.794901         2.652145         2.801983
 C         0.324724         1.927777         2.102720
 H        -3.297167         3.580458         0.802166
 H        -2.242964         1.520020        -0.017739
 H        -0.760328         2.577511        -0.232581
 H         0.807498        -0.333942         1.050548
 H        -2.588002        -0.119895         1.803351
 H        -1.311213        -0.187077         3.207478
 H        -3.019068         1.970455         3.282822
 H        -0.652874         3.516495         3.437362
 H         0.906169         2.381143         1.276562
 H         1.145038         1.371813         2.779220
