19
Iteration:   569
 O        -2.764491         3.956035         1.578116
 C        -1.923535         2.811430         1.615429
 C        -1.239410         2.060382         0.445866
 C        -0.528416         0.932603         1.303035
 O         0.137585        -0.038946         0.595193
 C        -1.655619         0.375878         2.044921
 C        -2.088637         1.674594         2.699679
 C        -0.910966         2.585276         2.763896
 C         0.302505         1.819783         2.239279
 H        -2.366864         4.622586         2.140510
 H        -1.882177         1.605181        -0.339590
 H        -0.578913         2.838993         0.032048
 H         0.780613         0.370950        -0.039959
 H        -2.503456        -0.106667         1.581028
 H        -1.275816        -0.152454         2.945092
 H        -2.939446         1.697283         3.359487
 H        -0.756724         3.213107         3.655738
 H         1.065149         2.293369         1.604871
 H         0.685453         1.221470         3.053580
