19
Iteration:  1967
 O        -2.770284         3.915704         1.492237
 C        -1.949903         2.740263         1.648212
 C        -1.387170         1.963919         0.493549
 C        -0.508033         0.855298         1.254286
 O         0.186178        -0.091412         0.500401
 C        -1.604653         0.441338         2.328689
 C        -2.009958         1.803338         2.858450
 C        -0.800161         2.758152         2.650275
 C         0.350681         1.937612         2.074175
 H        -3.711505         3.811149         1.811957
 H        -2.114279         1.510962        -0.075391
 H        -0.733055         2.636116        -0.008620
 H        -0.274739        -0.906256         0.440529
 H        -2.533561         0.054486         1.886202
 H        -1.354163        -0.332725         3.056097
 H        -2.761489         2.077169         3.634829
 H        -0.674637         3.322083         3.601638
 H         0.981301         2.514235         1.405640
 H         1.117290         1.530043         2.777827
