19
Iteration:  2068
 O        -2.627164         3.878644         1.322497
 C        -1.877339         2.727273         1.699298
 C        -1.524747         1.919941         0.495316
 C        -0.624691         1.034607         1.232951
 O         0.069227         0.002586         0.468392
 C        -1.471953         0.428512         2.431265
 C        -2.017295         1.685933         2.871540
 C        -0.795845         2.714119         2.790993
 C         0.343738         1.866948         2.204668
 H        -3.465161         3.704656         0.882820
 H        -2.317356         1.430037         0.091608
 H        -1.004258         2.444976        -0.228751
 H        -0.431545        -0.036376        -0.458975
 H        -1.989293        -0.408267         2.041028
 H        -0.642373         0.041636         3.051167
 H        -2.874438         2.039534         3.446507
 H        -0.796546         3.641473         3.402579
 H         0.876478         2.567259         1.537325
 H         0.872521         1.349286         2.982198
