19
Iteration:  3826
 O        -2.911901         3.858476         1.596864
 C        -1.877656         2.815177         1.700814
 C        -1.323947         1.915490         0.401382
 C        -0.543980         0.972577         1.286909
 O         0.029348        -0.207026         0.594323
 C        -1.631278         0.423301         2.236714
 C        -1.953281         1.837391         2.801237
 C        -0.710172         2.704872         2.725307
 C         0.355635         1.968164         2.027891
 H        -3.009976         4.160614         0.665283
 H        -2.100176         1.395400        -0.180887
 H        -0.905563         2.488039        -0.396887
 H         0.908590        -0.318567         0.832055
 H        -2.502376         0.000570         1.729393
 H        -1.366749        -0.183189         3.005168
 H        -2.585534         1.991242         3.734776
 H        -0.453989         3.606514         3.314676
 H         0.942899         2.639409         1.429200
 H         1.076038         1.547686         2.764177
