19
Iteration:  3863charge 0 multiplicity 1
 O        -2.766479         3.850068         1.515761
 C        -1.965930         2.690997         1.625401
 C        -1.430026         1.961906         0.427206
 C        -0.575287         0.970240         1.232982
 O         0.038620        -0.066336         0.475681
 C        -1.569679         0.485958         2.424846
 C        -2.024922         1.818524         2.871319
 C        -0.724862         2.714680         2.705494
 C         0.303893         1.853087         2.091897
 H        -2.526008         4.198526         0.612441
 H        -2.221050         1.423691        -0.077770
 H        -0.761570         2.616181        -0.183923
 H         0.910302        -0.158751         0.937941
 H        -2.230033        -0.285708         2.019983
 H        -0.903185        -0.081420         3.151567
 H        -2.628000         1.885812         3.732673
 H        -0.474680         3.668077         3.138137
 H         1.048891         2.463728         1.503598
 H         0.933228         1.184883         2.862933
