19
Iteration:  4248charge 0 multiplicity 1
 O        -2.809036         3.760073         1.369932
 C        -1.856734         2.752030         1.683981
 C        -1.475238         1.916480         0.476435
 C        -0.563968         0.960931         1.273941
 O        -0.230623        -0.239995         0.530327
 C        -1.398927         0.502890         2.508383
 C        -1.982593         1.837265         2.840752
 C        -0.635303         2.857475         2.628784
 C         0.419291         1.970112         2.018990
 H        -3.452620         3.622228         2.071459
 H        -2.338784         1.380410         0.069526
 H        -1.043945         2.680260        -0.189367
 H         0.427903        -0.002401        -0.158337
 H        -1.866723        -0.356074         2.085820
 H        -0.568752         0.241348         3.238934
 H        -2.663938         2.168625         3.733141
 H        -0.357094         3.661153         3.334428
 H         1.089661         2.608368         1.467836
 H         0.992840         1.500014         2.870431
