19
Iteration:   354charge 0 multiplicity 1
 O        -2.635889         3.992680         1.572093
 C        -1.908362         2.792625         1.688442
 C        -1.288211         2.083143         0.431252
 C        -0.531878         0.913282         1.269367
 O         0.237668        -0.094730         0.565472
 C        -1.680633         0.370796         2.142913
 C        -2.176654         1.697832         2.764071
 C        -0.909309         2.643967         2.757260
 C         0.289474         1.802830         2.178550
 H        -3.572016         3.887106         1.805811
 H        -1.989284         1.700457        -0.326546
 H        -0.580316         2.838617        -0.057501
 H         0.605361         0.213560        -0.232042
 H        -2.484461        -0.109102         1.627919
 H        -1.222581        -0.327184         2.883003
 H        -3.028879         1.904037         3.458226
 H        -0.957784         3.541028         3.420850
 H         0.864349         2.460288         1.599016
 H         0.887798         1.268206         2.954493
