19
Iteration:  3801
 O        -2.837926         3.749231         1.574798
 C        -1.854273         2.774699         1.601636
 C        -1.481331         1.938145         0.432812
 C        -0.590479         0.991140         1.308710
 O         0.098682        -0.112096         0.488420
 C        -1.567977         0.512402         2.369794
 C        -2.017631         1.879710         2.767844
 C        -0.748504         2.781328         2.654145
 C         0.389225         1.776131         2.134137
 H        -2.651755         4.573333         1.034708
 H        -2.428755         1.446155         0.070806
 H        -1.158719         2.410504        -0.516362
 H         1.039716        -0.015206         0.714681
 H        -2.392737        -0.095522         1.963786
 H        -1.151311        -0.068988         3.257635
 H        -2.833818         1.983967         3.464224
 H        -0.561075         3.561242         3.361309
 H         1.242869         2.297527         1.621686
 H         0.843796         1.264332         2.897367
