19
Iteration:  3893charge 0 multiplicity 1
 O        -2.783308         3.834959         1.455310
 C        -1.835985         2.784865         1.595620
 C        -1.561691         1.805675         0.612142
 C        -0.546591         0.851972         1.334995
 O         0.092292         0.056292         0.329407
 C        -1.593707         0.373769         2.416296
 C        -1.999987         1.848245         2.741343
 C        -0.717968         2.791423         2.693851
 C         0.314246         1.925217         2.186286
 H        -2.292805         4.652481         1.494795
 H        -2.472978         1.304449         0.290091
 H        -1.144165         2.126716        -0.353273
 H         0.658123        -0.634187         0.844744
 H        -2.242538        -0.267267         1.839985
 H        -1.247189        -0.170192         3.194636
 H        -2.736822         2.062672         3.455910
 H        -0.486069         3.698611         3.274358
 H         1.058767         2.366309         1.614074
 H         0.930958         1.429887         2.923938
