19
Iteration:  2205charge 0 multiplicity 1
 O        -2.635628         3.876237         1.411859
 C        -1.914659         2.759495         1.747953
 C        -1.527015         1.866724         0.516339
 C        -0.602068         0.890638         1.255476
 O         0.211598         0.052023         0.468114
 C        -1.541387         0.448129         2.437910
 C        -2.047124         1.842556         2.901285
 C        -0.809076         2.706926         2.670403
 C         0.312168         1.823353         2.072600
 H        -3.467792         3.719542         0.934023
 H        -2.427451         1.358617        -0.047512
 H        -1.055909         2.522779        -0.279895
 H        -0.235920        -0.077029        -0.313890
 H        -2.266952        -0.297147         2.013446
 H        -0.831195         0.061890         3.135941
 H        -2.647555         1.973257         3.787232
 H        -0.715205         3.586913         3.331753
 H         0.897429         2.351751         1.323796
 H         0.771882         1.297955         2.926931
