19
Iteration:  4100charge 0 multiplicity 1
 O        -2.862145         3.704227         1.400694
 C        -1.798847         2.795218         1.666292
 C        -1.536783         1.930113         0.503126
 C        -0.621727         0.942123         1.248288
 O         0.047483        -0.082905         0.496804
 C        -1.616142         0.517504         2.416785
 C        -1.960666         1.940544         2.874717
 C        -0.561578         2.758181         2.615288
 C         0.386573         1.828292         2.035842
 H        -3.345363         3.826637         2.264015
 H        -2.449299         1.452813         0.066226
 H        -1.034704         2.622161        -0.211949
 H         0.868142        -0.191153         0.904298
 H        -2.543461        -0.017848         2.025559
 H        -1.274987        -0.171280         3.231921
 H        -2.689952         2.193640         3.727998
 H        -0.425817         3.687860         3.160524
 H         1.227160         2.346865         1.547914
 H         0.885611         1.162524         2.696382
