19
Iteration:   166
 O        -2.923622         3.871628         1.451646
 C        -1.876201         2.858307         1.674163
 C        -1.243617         2.047431         0.469243
 C        -0.486732         0.974016         1.324964
 O         0.020036        -0.025830         0.511178
 C        -1.651620         0.398100         2.173047
 C        -1.954614         1.710781         2.834245
 C        -0.694459         2.729433         2.707721
 C         0.382076         1.782558         2.261320
 H        -3.707656         3.241212         1.392898
 H        -1.973039         1.801062        -0.280277
 H        -0.461279         2.653773         0.019742
 H        -0.395535        -0.015885        -0.404729
 H        -2.369506        -0.109879         1.584697
 H        -1.314722        -0.366818         2.882709
 H        -2.513838         1.751811         3.771932
 H        -0.796947         3.502031         3.491823
 H         1.218586         2.246601         1.832127
 H         0.750201         1.163587         3.079738
