19
Iteration:    39
 O        -2.903881         3.795951         1.403948
 C        -1.838919         2.840193         1.652793
 C        -1.267524         2.058332         0.513909
 C        -0.512901         0.949273         1.283486
 O        -0.046092        -0.053041         0.452652
 C        -1.515394         0.380138         2.319074
 C        -1.921808         1.754080         2.868381
 C        -0.779577         2.754656         2.704760
 C         0.359787         1.814972         2.186277
 H        -3.709400         3.522519         1.848029
 H        -2.055185         1.544400        -0.106471
 H        -0.700682         2.713779        -0.204925
 H        -0.073405         0.386554        -0.433768
 H        -2.353028        -0.091880         1.758458
 H        -1.038561        -0.198759         3.135609
 H        -2.652867         1.931719         3.683357
 H        -0.672741         3.401161         3.606499
 H         1.140451         2.429257         1.663128
 H         0.706118         1.253982         3.106192
