19
Iteration:  4298charge 0 multiplicity 1
 O        -2.701173         3.845405         1.595322
 C        -1.960678         2.724550         1.664013
 C        -1.649009         1.898841         0.480341
 C        -0.681048         0.840364         1.264440
 O         0.157621        -0.069275         0.548036
 C        -1.566767         0.463618         2.540071
 C        -1.872270         1.942331         2.895810
 C        -0.671246         2.820731         2.550843
 C         0.319545         1.840448         1.804482
 H        -3.199630         3.724800         0.772079
 H        -2.632791         1.428267         0.205355
 H        -1.238185         2.307865        -0.493099
 H         1.043660        -0.309406         1.021373
 H        -2.492010        -0.156739         2.347175
 H        -0.952732        -0.144184         3.227579
 H        -2.526472         2.261685         3.690793
 H        -0.553310         3.716085         3.162783
 H         0.874237         2.409382         0.990420
 H         1.027538         1.375039         2.496416
