19
Iteration:  1209charge 0 multiplicity 1
 O        -2.641084         3.987418         1.688906
 C        -1.926927         2.795379         1.668374
 C        -1.434580         1.935271         0.478431
 C        -0.520399         0.905026         1.246710
 O         0.180914        -0.085335         0.691239
 C        -1.654726         0.311413         2.220643
 C        -2.059554         1.706861         2.787664
 C        -0.844368         2.744995         2.557079
 C         0.333230         1.960382         2.028008
 H        -3.427346         4.111588         1.096193
 H        -2.170364         1.496201        -0.084208
 H        -0.797972         2.501054        -0.223794
 H        -0.203808        -0.481594        -0.099403
 H        -2.292558        -0.342785         1.551774
 H        -1.277897        -0.236478         3.069592
 H        -2.863107         1.926537         3.508016
 H        -0.639406         3.569374         3.198083
 H         0.953342         2.548715         1.359275
 H         1.053878         1.565161         2.825944
