19
Iteration:   358
 O        -2.626482         4.033324         1.559890
 C        -1.923473         2.780779         1.678145
 C        -1.275820         2.062644         0.429620
 C        -0.502407         0.882139         1.209372
 O         0.248591        -0.090180         0.532917
 C        -1.673461         0.364534         2.174055
 C        -2.170312         1.713052         2.793705
 C        -0.931166         2.630021         2.794906
 C         0.247585         1.801462         2.194647
 H        -3.584022         3.933400         1.696326
 H        -2.032212         1.522315        -0.198570
 H        -0.631716         2.834711        -0.008606
 H         0.686432         0.187702        -0.337064
 H        -2.624069        -0.061292         1.707752
 H        -1.152712        -0.326990         2.828311
 H        -2.953078         1.921451         3.482565
 H        -0.911979         3.474044         3.448000
 H         0.906056         2.563866         1.639941
 H         0.776583         1.442680         3.077478
