19
Iteration:  4204
 O        -2.868766         3.801903         1.492157
 C        -1.970527         2.763397         1.721871
 C        -1.545912         1.797753         0.541317
 C        -0.577835         0.875703         1.293326
 O         0.185944        -0.112031         0.595593
 C        -1.667040         0.494413         2.362236
 C        -1.905506         1.906323         2.944702
 C        -0.657128         2.796475         2.499407
 C         0.456585         1.915673         1.905030
 H        -2.527849         4.634891         1.830305
 H        -2.451525         1.369164         0.102444
 H        -0.995088         2.344234        -0.234782
 H        -0.262216        -0.249307        -0.255132
 H        -2.628556         0.193952         1.928854
 H        -1.393238        -0.113881         3.269832
 H        -2.391956         2.127238         3.956396
 H        -0.451335         3.755449         2.995650
 H         1.129040         2.310943         1.149999
 H         0.982355         1.384632         2.751010
