19
Iteration:   478
 O        -2.677005         3.877254         1.606860
 C        -1.828914         2.823008         1.616911
 C        -1.267306         2.037384         0.328009
 C        -0.497561         0.959004         1.247244
 O         0.179060        -0.088959         0.582292
 C        -1.721164         0.422112         2.139473
 C        -2.142576         1.787018         2.683770
 C        -0.914907         2.614647         2.901939
 C         0.261217         1.851358         2.204226
 H        -3.316496         3.609306         2.282247
 H        -1.964557         1.508518        -0.420784
 H        -0.617200         2.856811        -0.119226
 H         0.800698         0.159316        -0.058122
 H        -2.467128        -0.057085         1.411745
 H        -1.453880        -0.327275         2.889809
 H        -3.006921         1.875966         3.367365
 H        -0.802942         3.491259         3.541197
 H         1.064764         2.474069         1.743802
 H         0.744387         1.261978         2.990487
