19
Iteration:  2480charge 0 multiplicity 1
 O        -2.664130         3.993437         1.554637
 C        -1.980256         2.722265         1.645691
 C        -1.473311         1.865483         0.488839
 C        -0.534856         0.903856         1.252329
 O         0.151837        -0.114128         0.477578
 C        -1.566789         0.440754         2.398524
 C        -2.012297         1.805839         2.895203
 C        -0.839161         2.747365         2.635310
 C         0.316655         1.899697         1.991897
 H        -3.442478         3.982020         0.966636
 H        -2.184973         1.335532        -0.145580
 H        -0.949324         2.670350        -0.084453
 H         0.776497        -0.398588         1.092831
 H        -2.369650        -0.127819         1.744337
 H        -1.113039        -0.149190         3.230496
 H        -2.838299         2.029047         3.606305
 H        -0.837931         3.527886         3.424698
 H         0.906483         2.582786         1.320782
 H         1.008604         1.258232         2.744550
