19
Iteration:   752
 O        -2.696862         3.942102         1.449216
 C        -1.900974         2.809678         1.696793
 C        -1.257638         2.099622         0.581058
 C        -0.532279         0.968456         1.326858
 O         0.138369        -0.060428         0.499321
 C        -1.660709         0.404671         2.145104
 C        -2.101442         1.727398         2.654708
 C        -0.868380         2.623840         2.796626
 C         0.312546         1.779622         2.231970
 H        -3.558362         3.719222         1.825912
 H        -1.863636         1.376856        -0.022328
 H        -0.635179         2.685109        -0.104671
 H         0.356205         0.306840        -0.318949
 H        -2.349667        -0.095046         1.377406
 H        -1.318586        -0.250430         2.966168
 H        -2.935511         1.861232         3.389878
 H        -0.739159         3.185573         3.737813
 H         1.180305         2.354631         1.747659
 H         0.585991         1.194736         3.136604
