19
Iteration:  4656
 O        -2.968515         3.739013         1.476514
 C        -1.901598         2.832181         1.632428
 C        -1.400573         1.949963         0.430700
 C        -0.518539         0.869896         1.329735
 O        -0.091438        -0.192875         0.483077
 C        -1.509961         0.461065         2.449531
 C        -1.854191         1.897003         2.894663
 C        -0.713424         2.839431         2.631129
 C         0.382847         1.938851         1.939067
 H        -2.797345         4.439713         2.167912
 H        -2.161435         1.382973        -0.044981
 H        -0.824536         2.572297        -0.230985
 H         0.709775        -0.613728         0.963640
 H        -2.413157        -0.179392         2.218969
 H        -0.947446        -0.072207         3.211579
 H        -2.533547         1.994787         3.707533
 H        -0.241677         3.582686         3.310893
 H         0.875348         2.481171         1.102960
 H         1.136430         1.606790         2.652301
