19
Iteration:  1316charge 0 multiplicity 1
 O        -2.648628         3.974540         1.425840
 C        -1.901140         2.799086         1.666214
 C        -1.483290         1.957263         0.470265
 C        -0.666672         0.958585         1.231148
 O         0.102242        -0.021941         0.558361
 C        -1.538114         0.314126         2.324249
 C        -2.062751         1.713041         2.810848
 C        -0.787482         2.627509         2.719215
 C         0.288725         1.898039         2.068126
 H        -2.756753         4.477490         2.262121
 H        -2.312715         1.470730        -0.113434
 H        -0.734913         2.431351        -0.269534
 H         1.019991         0.145111         0.660234
 H        -2.395259        -0.315264         1.977489
 H        -0.955392        -0.266017         3.044534
 H        -2.822692         1.954335         3.549274
 H        -0.632066         3.282176         3.557228
 H         0.944804         2.426831         1.403406
 H         0.865474         1.341600         2.802673
