19
Iteration:  4583
 O        -2.742718         3.933453         1.442839
 C        -2.020144         2.688333         1.710898
 C        -1.572958         1.881041         0.481890
 C        -0.477446         0.877955         1.315906
 O        -0.011624        -0.138179         0.421023
 C        -1.434301         0.465145         2.588049
 C        -2.026157         1.769227         2.884340
 C        -0.776156         2.744718         2.569811
 C         0.391699         2.016317         1.915627
 H        -2.208601         4.608328         1.869024
 H        -2.402503         1.189142         0.200483
 H        -1.147192         2.462590        -0.421900
 H         0.582814        -0.820084         0.961118
 H        -2.063590        -0.409462         2.248665
 H        -0.798920         0.121351         3.428945
 H        -2.604188         2.175186         3.709955
 H        -0.620483         3.693757         3.123196
 H         0.743706         2.625596         1.010104
 H         1.237003         1.712866         2.551926
