19
Iteration:  3260
 O        -2.679199         3.919339         1.453783
 C        -2.026363         2.682449         1.659926
 C        -1.405979         2.046232         0.456637
 C        -0.498287         1.011047         1.197990
 O         0.039308        -0.151128         0.571570
 C        -1.555000         0.445510         2.311190
 C        -1.946867         1.714781         2.880049
 C        -0.855645         2.720237         2.677479
 C         0.307525         1.875876         2.101453
 H        -3.614294         3.843956         1.738225
 H        -2.205676         1.578059        -0.133657
 H        -0.690727         2.750913        -0.152477
 H         0.926075        -0.068872         0.364904
 H        -2.394368        -0.019948         1.814436
 H        -0.912962        -0.179634         2.970203
 H        -2.679027         1.867853         3.649931
 H        -0.637366         3.509117         3.395410
 H         1.146514         2.454362         1.636555
 H         0.739524         1.416808         3.000900
