19
Iteration:  4385charge 0 multiplicity 1
 O        -2.911371         3.758956         1.345615
 C        -1.835213         2.846261         1.704412
 C        -1.486771         1.955176         0.531153
 C        -0.622219         0.863524         1.305501
 O        -0.166029        -0.132917         0.422661
 C        -1.384281         0.480873         2.544644
 C        -1.879976         1.910766         2.860801
 C        -0.655901         2.803688         2.616833
 C         0.439358         1.892754         1.988543
 H        -3.726173         3.402527         1.771052
 H        -2.404690         1.563633         0.022966
 H        -0.818813         2.475548        -0.239111
 H         0.421909        -0.680244         0.946075
 H        -2.235613        -0.207375         2.280243
 H        -0.712522         0.028929         3.261203
 H        -2.513739         2.122343         3.790078
 H        -0.220727         3.576010         3.246586
 H         1.096638         2.633364         1.343128
 H         1.115457         1.433276         2.759360
