19
Iteration:   690
 O        -2.702498         3.955103         1.509585
 C        -1.912861         2.833562         1.649927
 C        -1.338861         2.065359         0.493781
 C        -0.542365         0.924278         1.344321
 O         0.164500        -0.043288         0.551552
 C        -1.710106         0.322864         2.054429
 C        -2.216809         1.693203         2.658645
 C        -0.789365         2.569886         2.804600
 C         0.341540         1.867453         2.260485
 H        -2.627773         4.679985         2.153685
 H        -1.978194         1.505981        -0.214245
 H        -0.545174         2.574864        -0.168428
 H         0.751444         0.525471         0.120740
 H        -2.272016        -0.244595         1.344390
 H        -1.289640        -0.301659         2.894513
 H        -2.900464         1.663206         3.556341
 H        -0.852533         3.375728         3.536271
 H         1.133973         2.365855         1.693796
 H         0.883431         1.344191         3.020252
