19
Iteration:  2618
 O        -2.644739         4.014165         1.622007
 C        -1.950408         2.722492         1.625985
 C        -1.403756         1.818330         0.452550
 C        -0.590639         0.947856         1.299861
 O         0.176592        -0.024293         0.544979
 C        -1.599778         0.395486         2.222388
 C        -1.997248         1.819693         2.850489
 C        -0.868217         2.737523         2.583123
 C         0.328671         1.890579         2.098200
 H        -3.505696         3.970084         1.199958
 H        -2.247897         1.188754         0.006493
 H        -0.826100         2.403189        -0.414159
 H        -0.152709        -0.931021         0.967164
 H        -2.508388        -0.004977         1.743686
 H        -1.063470        -0.355189         2.949083
 H        -2.605212         1.928545         3.793752
 H        -0.917189         3.548762         3.327422
 H         1.057512         2.350236         1.287954
 H         0.921334         1.492011         2.987653
