19
Iteration:  2437
 O        -2.774486         3.819082         1.415186
 C        -1.918058         2.761999         1.628862
 C        -1.395899         1.977549         0.533908
 C        -0.536926         0.986279         1.267060
 O         0.069852        -0.040930         0.504710
 C        -1.524285         0.455755         2.398158
 C        -1.969794         1.846888         2.811726
 C        -0.754542         2.727651         2.715131
 C         0.373624         1.835497         2.094378
 H        -3.677562         3.430392         1.616498
 H        -2.282784         1.458846         0.134017
 H        -0.930653         2.328618        -0.323395
 H        -0.625767        -0.610144         0.159679
 H        -2.437296        -0.121325         2.060573
 H        -0.911626        -0.013027         3.179305
 H        -2.890073         2.139817         3.339612
 H        -0.500114         3.548310         3.418752
 H         1.028756         2.450150         1.450947
 H         0.897060         1.245344         2.962207
