19
Iteration:  2893charge 0 multiplicity 1
 O        -2.585252         3.920701         1.503560
 C        -1.964299         2.696917         1.677245
 C        -1.473713         1.966809         0.439251
 C        -0.624881         0.975867         1.241469
 O         0.150391         0.000337         0.520273
 C        -1.587531         0.376510         2.302611
 C        -2.015277         1.805163         2.823139
 C        -0.793998         2.748959         2.664594
 C         0.237136         1.858534         2.137563
 H        -3.411991         3.643830         1.103886
 H        -2.209719         1.401923        -0.160752
 H        -0.850503         2.657559         0.005522
 H         0.743186        -0.540427         1.183870
 H        -2.382053        -0.310048         1.922768
 H        -0.847335        -0.338823         2.909520
 H        -2.706653         2.092985         3.631202
 H        -0.721253         3.553266         3.425255
 H         1.096912         2.293850         1.447474
 H         0.595660         1.075432         2.826129
