19
Iteration:    73
 O        -2.684702         3.863978         1.616824
 C        -1.927415         2.722430         1.628398
 C        -1.404335         1.992483         0.415329
 C        -0.513896         0.977581         1.194247
 O         0.248234        -0.010708         0.513469
 C        -1.646390         0.497759         2.317615
 C        -2.027024         1.751729         2.922785
 C        -0.867781         2.660186         2.711661
 C         0.299796         1.872604         2.041102
 H        -3.450043         3.645446         1.102575
 H        -2.263091         1.414730        -0.026926
 H        -0.997080         2.748217        -0.297614
 H        -0.223536        -0.834902         0.505447
 H        -2.478608        -0.050926         1.764581
 H        -1.400165        -0.267647         3.071828
 H        -2.831266         2.064174         3.559398
 H        -0.628981         3.402289         3.475300
 H         0.954675         2.610728         1.445891
 H         1.035002         1.324871         2.656751
