19
Iteration:  3672
 O        -2.845085         3.746070         1.508108
 C        -1.839973         2.821525         1.647330
 C        -1.407345         1.893039         0.393832
 C        -0.590745         0.964084         1.264288
 O         0.029019        -0.124358         0.556660
 C        -1.565922         0.440292         2.360553
 C        -1.957795         1.872263         2.848757
 C        -0.715307         2.740236         2.760212
 C         0.324686         1.904973         2.098980
 H        -2.503229         4.553064         1.096174
 H        -2.334418         1.410162        -0.072226
 H        -0.701715         2.314635        -0.347589
 H         0.171041         0.195506        -0.421329
 H        -2.336121        -0.114651         1.787889
 H        -1.017483        -0.266532         2.920202
 H        -2.772704         2.121930         3.474209
 H        -0.657995         3.582898         3.433234
 H         1.079396         2.549824         1.658970
 H         0.827993         1.459600         3.065983
