19
Iteration:  1823
 O        -2.765188         3.831055         1.360330
 C        -1.896922         2.812801         1.636889
 C        -1.328928         1.944025         0.503876
 C        -0.576178         0.902238         1.319236
 O         0.121658         0.089549         0.414471
 C        -1.615677         0.422451         2.422784
 C        -1.997139         1.768979         2.875551
 C        -0.772321         2.734055         2.649756
 C         0.292599         1.791494         2.165280
 H        -3.238888         4.197462         2.109982
 H        -2.193825         1.619634        -0.006705
 H        -0.587012         2.487735        -0.145185
 H        -0.292194        -0.706529         0.335216
 H        -2.441212        -0.204482         1.937177
 H        -1.190740        -0.130912         3.246428
 H        -2.880524         2.058084         3.431074
 H        -0.413983         3.384837         3.394105
 H         1.070222         2.260301         1.537434
 H         0.878247         1.198485         2.982467
