19
Iteration:  3714
 O        -2.826279         3.861898         1.511235
 C        -1.919731         2.773409         1.623236
 C        -1.448141         1.930966         0.427734
 C        -0.576206         0.939992         1.246694
 O         0.085944        -0.153753         0.588937
 C        -1.551432         0.421273         2.341891
 C        -1.991879         1.831752         2.895612
 C        -0.779095         2.735739         2.584603
 C         0.327432         1.893640         2.072472
 H        -2.486202         4.580997         2.103999
 H        -2.226001         1.435029        -0.282355
 H        -0.923999         2.626943        -0.300154
 H         1.059404         0.078586         0.470393
 H        -2.377553        -0.182304         1.997391
 H        -1.041460        -0.179313         3.063075
 H        -2.683761         2.150645         3.634905
 H        -0.476353         3.547102         3.248264
 H         1.072244         2.481666         1.420982
 H         0.860479         1.201596         2.842300
