19
Iteration:   394charge 0 multiplicity 1
 O        -2.511384         3.949747         1.473297
 C        -1.868175         2.712771         1.667933
 C        -1.408862         1.998199         0.562803
 C        -0.531384         0.975406         1.264608
 O         0.080384         0.150222         0.498133
 C        -1.593313         0.307774         2.209481
 C        -2.195690         1.706828         2.700759
 C        -0.934459         2.603988         2.778230
 C         0.313523         1.788075         2.314553
 H        -2.913889         3.777818         0.589224
 H        -2.216223         1.439790         0.063097
 H        -1.050911         2.560957        -0.251455
 H         0.715472         0.716933        -0.098491
 H        -2.315689        -0.332976         1.665150
 H        -1.073490        -0.378799         2.921372
 H        -3.067675         1.794257         3.391161
 H        -0.798296         3.476578         3.447323
 H         1.102285         2.274918         1.647260
 H         0.813286         1.360271         3.219948
