19
Iteration:  3361charge 0 multiplicity 1
 O        -2.761930         3.957250         1.554830
 C        -1.956213         2.767423         1.696851
 C        -1.424457         1.998591         0.475844
 C        -0.515799         0.980910         1.191549
 O         0.071192        -0.161568         0.713880
 C        -1.565967         0.405439         2.200578
 C        -2.019714         1.712011         2.785236
 C        -0.778134         2.658603         2.707851
 C         0.374061         1.950366         2.098326
 H        -3.116761         3.999273         0.648131
 H        -2.192694         1.365733        -0.024011
 H        -1.093064         2.748205        -0.372483
 H         0.521329         0.089125        -0.186017
 H        -2.287637        -0.258357         1.661070
 H        -0.976818        -0.294582         2.929679
 H        -2.810864         1.896202         3.559702
 H        -0.545055         3.509416         3.359775
 H         0.986982         2.623776         1.504516
 H         0.874602         1.309304         2.872267
