19
Iteration:  1795
 O        -2.667329         3.801258         1.295214
 C        -1.885965         2.721046         1.706995
 C        -1.459769         1.859165         0.484360
 C        -0.577668         0.967518         1.247350
 O         0.051391         0.032793         0.351131
 C        -1.611614         0.454079         2.319171
 C        -2.061583         1.796606         2.913230
 C        -0.798349         2.700111         2.837134
 C         0.402069         1.933536         2.228498
 H        -2.706348         4.614766         1.785556
 H        -2.453677         1.550039         0.005638
 H        -0.844962         2.461154        -0.161464
 H         0.448554        -0.692294         0.817648
 H        -2.317971        -0.097647         1.718005
 H        -1.139213        -0.192473         3.128642
 H        -2.896207         2.034771         3.595450
 H        -0.667328         3.561802         3.575680
 H         1.188695         2.441355         1.613195
 H         0.832080         1.189507         2.835972
