19
Iteration:  1006
 O        -2.742300         3.913311         1.534900
 C        -1.916722         2.754890         1.734819
 C        -1.288990         2.082450         0.466272
 C        -0.579916         0.864867         1.274829
 O         0.148961        -0.222162         0.446547
 C        -1.649200         0.350686         2.232456
 C        -2.085354         1.810158         2.779460
 C        -0.795442         2.813628         2.772879
 C         0.374453         1.907121         2.225103
 H        -3.363155         3.613255         0.807093
 H        -1.910877         1.730090        -0.348908
 H        -0.603839         2.787092         0.140849
 H        -0.004493         0.099349        -0.464914
 H        -2.532868        -0.138689         1.815154
 H        -1.367133        -0.392552         3.035996
 H        -2.944675         2.067839         3.473591
 H        -0.717061         3.731842         3.379864
 H         1.199406         2.340181         1.591432
 H         0.713424         1.492776         3.154965
