19
Iteration:  4493charge 0 multiplicity 1
 O        -2.796578         3.691721         1.503326
 C        -1.874874         2.714915         1.651781
 C        -1.509956         1.861439         0.513859
 C        -0.575358         0.935066         1.333098
 O        -0.105490        -0.039741         0.384912
 C        -1.532821         0.495980         2.473714
 C        -1.822423         1.904304         2.934417
 C        -0.725938         2.847294         2.543491
 C         0.381514         1.944176         2.050762
 H        -2.859268         3.806064         0.553962
 H        -2.394660         1.429462         0.045554
 H        -0.760253         2.364985        -0.145744
 H         0.465971        -0.793797         0.730959
 H        -2.434194        -0.123891         2.153187
 H        -1.028819        -0.083335         3.239229
 H        -2.429655         2.230309         3.820867
 H        -0.491108         3.706858         3.148090
 H         1.161809         2.408040         1.372961
 H         0.787304         1.585742         2.963227
