19
Iteration:  1025charge 0 multiplicity 1
 O        -2.703526         3.936709         1.386847
 C        -1.854561         2.838317         1.635691
 C        -1.302270         2.023592         0.527005
 C        -0.524451         0.920593         1.299955
 O         0.016690        -0.011345         0.474779
 C        -1.560692         0.451974         2.311183
 C        -2.058835         1.723089         2.829447
 C        -0.850996         2.599668         2.787217
 C         0.296484         1.811034         2.221485
 H        -3.419649         3.562709         0.839786
 H        -2.045993         1.329222        -0.040914
 H        -0.606786         2.508184        -0.229063
 H         0.085421         0.230686        -0.409437
 H        -2.380864        -0.146880         1.837815
 H        -1.097139        -0.192158         3.044369
 H        -2.786423         1.817898         3.649354
 H        -0.732842         3.267294         3.651445
 H         0.927277         2.556269         1.792574
 H         0.986845         1.248472         2.847765
