19
Iteration:  3973charge 0 multiplicity 1
 O        -2.819649         3.814005         1.505575
 C        -1.868996         2.695644         1.607992
 C        -1.415086         1.856470         0.370164
 C        -0.502454         0.936078         1.276137
 O         0.034859        -0.039003         0.491557
 C        -1.620649         0.516848         2.362179
 C        -1.944496         1.864820         2.817249
 C        -0.714199         2.809009         2.718375
 C         0.411680         1.896352         2.132406
 H        -3.436495         3.680910         2.218820
 H        -2.232577         1.271162        -0.023446
 H        -0.944733         2.342522        -0.513438
 H        -0.252919        -0.889643         0.932297
 H        -2.441148         0.070480         1.837479
 H        -1.087334        -0.015025         3.095219
 H        -2.742770         1.989064         3.631010
 H        -0.588288         3.771957         3.206414
 H         0.884709         2.468325         1.323990
 H         0.929682         1.412617         3.026697
