19
Iteration:  1081charge 0 multiplicity 1
 O        -2.692794         4.096512         1.648958
 C        -2.005967         2.766672         1.567730
 C        -1.416124         1.950175         0.383762
 C        -0.536226         0.848573         1.304867
 O         0.184389        -0.070904         0.595862
 C        -1.665703         0.377107         2.227133
 C        -2.059815         1.768098         2.788729
 C        -0.799716         2.675756         2.700135
 C         0.354113         1.822115         2.086806
 H        -3.633816         3.986201         1.529816
 H        -2.107604         1.340430        -0.335218
 H        -0.640111         2.429859        -0.241866
 H         1.155647         0.112124         0.606321
 H        -2.416748        -0.175503         1.638204
 H        -1.348370        -0.276313         3.062784
 H        -2.761599         1.929167         3.652997
 H        -0.749463         3.481341         3.435186
 H         0.897922         2.485399         1.430828
 H         0.968096         1.181638         2.709520
