19
Iteration:  3112charge 0 multiplicity 1
 O        -2.779228         4.000652         1.546117
 C        -2.009880         2.793840         1.658891
 C        -1.345956         2.016806         0.442452
 C        -0.514293         0.955573         1.205162
 O         0.223804        -0.124648         0.532371
 C        -1.642057         0.362974         2.224055
 C        -1.931165         1.781207         2.880186
 C        -0.799970         2.713917         2.635997
 C         0.251832         1.836824         2.145514
 H        -3.733051         3.776089         1.347416
 H        -2.128866         1.577799        -0.306128
 H        -0.786053         2.713305        -0.147165
 H         0.339590        -0.767774         1.269252
 H        -2.553579        -0.008761         1.786627
 H        -1.382099        -0.370144         2.908469
 H        -2.605523         1.995177         3.697170
 H        -0.609525         3.550135         3.332656
 H         1.221394         2.069641         1.654493
 H         0.704192         1.323066         3.000051
