19
Iteration:   718
 O        -2.676746         3.876732         1.625942
 C        -1.921746         2.787434         1.572509
 C        -1.277229         2.193586         0.348105
 C        -0.549556         0.959500         1.210752
 O         0.269860        -0.158919         0.678268
 C        -1.716907         0.458364         2.097152
 C        -2.051145         1.764769         2.742728
 C        -0.887697         2.573411         2.806941
 C         0.165937         1.843464         2.209508
 H        -2.939787         4.108764         2.494669
 H        -1.896119         1.559653        -0.346051
 H        -0.549522         2.746494        -0.210194
 H         0.530149         0.090495        -0.183418
 H        -2.600738        -0.018575         1.488343
 H        -1.385318        -0.395342         2.678481
 H        -2.960450         1.790611         3.333504
 H        -0.865364         3.446881         3.455034
 H         0.991433         2.455545         1.744812
 H         0.725922         1.162379         2.942258
