19
Iteration:  3458charge 0 multiplicity 1
 O        -2.703079         3.803235         1.468080
 C        -1.862301         2.724723         1.650443
 C        -1.391761         1.981934         0.434854
 C        -0.579396         0.953333         1.319001
 O         0.059023        -0.055062         0.524196
 C        -1.604552         0.404128         2.324883
 C        -2.062007         1.814585         2.793536
 C        -0.797943         2.666307         2.734037
 C         0.298486         1.993122         2.012730
 H        -2.963230         3.960127         2.394643
 H        -2.063311         1.637155        -0.308333
 H        -0.571875         2.387515        -0.239583
 H         0.729598        -0.492677         1.168350
 H        -2.384844        -0.120613         1.890262
 H        -1.340862        -0.269637         3.124536
 H        -2.671411         1.741870         3.711196
 H        -0.562022         3.578558         3.323353
 H         0.637482         2.837288         1.239829
 H         1.159011         1.710590         2.686827
