19
Iteration:  4490
 O        -2.793375         3.722353         1.503012
 C        -1.869170         2.669156         1.677284
 C        -1.506517         1.861681         0.510542
 C        -0.557068         0.952463         1.304367
 O        -0.124148        -0.053410         0.399675
 C        -1.524409         0.524050         2.482017
 C        -1.836991         1.880060         2.906739
 C        -0.734601         2.830060         2.543110
 C         0.386894         1.975082         2.045833
 H        -2.706339         3.771373         0.508948
 H        -2.397843         1.434963         0.053159
 H        -0.829499         2.290905        -0.183246
 H         0.430443        -0.676321         0.767695
 H        -2.400253        -0.087835         2.198636
 H        -0.982723        -0.047779         3.280856
 H        -2.470595         2.061787         3.827334
 H        -0.528205         3.665322         3.222241
 H         1.094308         2.373441         1.384488
 H         0.838752         1.601914         2.964973
