19
Iteration:  3903charge 0 multiplicity 1
 O        -2.713137         3.794011         1.432373
 C        -1.884575         2.762315         1.688635
 C        -1.485899         1.846650         0.485480
 C        -0.604926         0.897040         1.319063
 O         0.114463         0.067532         0.392370
 C        -1.604232         0.377850         2.384670
 C        -2.027200         1.789606         2.881240
 C        -0.764156         2.845748         2.605789
 C         0.365743         1.916264         2.152164
 H        -2.392218         4.600979         1.819383
 H        -2.363072         1.188804         0.259188
 H        -1.104163         2.224691        -0.472198
 H         0.404638        -0.792427         0.758092
 H        -2.507873        -0.079377         1.963958
 H        -1.234206        -0.133398         3.214157
 H        -2.772972         1.910162         3.632953
 H        -0.538337         3.727138         3.240498
 H         0.963485         2.389923         1.428876
 H         0.861621         1.357450         2.855553
