19
Iteration:  1123
 O        -2.807234         3.876810         1.550273
 C        -1.887279         2.828162         1.657389
 C        -1.289089         2.010756         0.354667
 C        -0.547453         0.981860         1.192241
 O        -0.007100        -0.207119         0.518176
 C        -1.575684         0.454721         2.286639
 C        -1.960199         1.776955         2.830211
 C        -0.806185         2.763095         2.808647
 C         0.349699         1.862054         2.179469
 H        -3.572882         3.456211         1.142219
 H        -2.138145         1.605160        -0.311220
 H        -0.641075         2.721238        -0.236994
 H         0.911809        -0.214332         0.621318
 H        -2.490661         0.141553         1.736731
 H        -1.235261        -0.373982         2.885972
 H        -2.879182         1.914958         3.449798
 H        -0.690155         3.608431         3.483735
 H         1.073514         2.434462         1.589105
 H         0.957785         1.260299         2.947275
