19
Iteration:  2603
 O        -2.708362         4.001067         1.516058
 C        -1.943059         2.802863         1.664301
 C        -1.503161         1.892768         0.440071
 C        -0.505197         0.904168         1.267369
 O         0.188034        -0.062245         0.535005
 C        -1.679357         0.383941         2.290414
 C        -1.958462         1.750353         2.843355
 C        -0.749055         2.777798         2.632740
 C         0.328241         1.909772         2.148331
 H        -3.632560         3.718986         1.488703
 H        -2.255543         1.382706        -0.173773
 H        -0.995858         2.401453        -0.256004
 H         0.014717        -0.979917         0.640112
 H        -2.456121        -0.036280         1.546064
 H        -1.351445        -0.346203         3.067133
 H        -2.605556         1.809505         3.682673
 H        -0.461222         3.638620         3.245477
 H         1.079353         2.462438         1.603353
 H         0.794800         1.280493         3.010470
