19
Iteration:  2084
 O        -2.674514         3.939734         1.440161
 C        -1.909519         2.766320         1.649256
 C        -1.451122         1.860098         0.489934
 C        -0.531754         0.904352         1.289402
 O         0.135360        -0.020630         0.467282
 C        -1.459155         0.402058         2.386604
 C        -2.057267         1.861004         2.826116
 C        -0.859349         2.711153         2.785184
 C         0.316102         1.912441         2.099092
 H        -3.554975         3.585326         1.122269
 H        -2.449743         1.256751         0.090669
 H        -0.991079         2.439787        -0.440697
 H        -0.480855        -0.168365        -0.348038
 H        -2.339198        -0.229143         2.062919
 H        -1.087708        -0.131224         3.259754
 H        -2.801476         1.739074         3.605346
 H        -0.598366         3.442063         3.523848
 H         1.104961         2.498211         1.606509
 H         0.936892         1.262808         2.803311
