19
Iteration:  3250charge 0 multiplicity 1
 O        -2.696719         3.917307         1.525855
 C        -1.947400         2.761774         1.684603
 C        -1.395520         2.038091         0.464747
 C        -0.521530         0.931906         1.286925
 O         0.032170        -0.151261         0.593843
 C        -1.551508         0.354553         2.273327
 C        -2.052182         1.751976         2.790668
 C        -0.797233         2.707020         2.617031
 C         0.330205         1.963598         2.108343
 H        -3.655519         3.851140         1.563688
 H        -1.984250         1.481674        -0.245049
 H        -0.861088         2.873906        -0.128943
 H         0.889178         0.024115         0.235886
 H        -2.237337        -0.381434         1.813526
 H        -1.173506        -0.233596         3.175030
 H        -2.714420         1.879204         3.623156
 H        -0.643281         3.565282         3.260840
 H         0.922925         2.575356         1.435441
 H         0.984841         1.398964         2.757303
