19
Iteration:  2894
 O        -2.579255         3.918226         1.500714
 C        -1.971193         2.704096         1.675043
 C        -1.470868         1.956379         0.446687
 C        -0.622583         0.972373         1.232522
 O         0.149803         0.011044         0.517996
 C        -1.599386         0.369484         2.306134
 C        -2.012261         1.805461         2.825232
 C        -0.785809         2.745866         2.665813
 C         0.240254         1.862035         2.139818
 H        -3.391424         3.631365         1.092760
 H        -2.195594         1.401275        -0.096261
 H        -0.883728         2.641302        -0.009832
 H         0.724368        -0.529000         1.148010
 H        -2.385797        -0.306622         1.897975
 H        -0.863716        -0.343684         2.932188
 H        -2.714541         2.107025         3.635073
 H        -0.781172         3.547325         3.409366
 H         1.092202         2.315062         1.436305
 H         0.611235         1.090503         2.866559
