19
Iteration:  3661charge 0 multiplicity 1
 O        -2.792911         3.731290         1.485754
 C        -1.805055         2.773382         1.675892
 C        -1.463350         1.906458         0.441745
 C        -0.558207         0.986679         1.221321
 O        -0.003361        -0.126020         0.587835
 C        -1.504375         0.528220         2.277214
 C        -1.996574         1.816926         2.786705
 C        -0.785598         2.771710         2.830388
 C         0.366891         1.943965         2.151349
 H        -2.445452         4.250500         0.714726
 H        -2.463045         1.466137         0.080601
 H        -1.074724         2.408128        -0.439186
 H         0.051788        -0.014114        -0.410441
 H        -2.365269        -0.061755         1.908414
 H        -1.062237         0.007377         3.091469
 H        -2.737811         1.850382         3.543244
 H        -0.543698         3.500529         3.603742
 H         1.061594         2.477445         1.501078
 H         0.946329         1.099296         2.734836
