19
Iteration:  2253charge 0 multiplicity 1
 O        -2.666801         3.821753         1.642071
 C        -1.959474         2.675634         1.671287
 C        -1.380994         1.928954         0.400913
 C        -0.571508         1.011029         1.214953
 O         0.185686        -0.169028         0.658805
 C        -1.577264         0.472164         2.326150
 C        -2.041151         1.828925         2.837887
 C        -0.796256         2.821732         2.588976
 C         0.294345         1.970646         2.000836
 H        -3.656939         3.708870         1.622021
 H        -2.199950         1.402694        -0.252482
 H        -0.824602         2.577631        -0.278120
 H        -0.437712        -0.481747        -0.126835
 H        -2.444458        -0.028244         1.960419
 H        -1.029624        -0.138547         3.077431
 H        -2.796036         1.801418         3.627993
 H        -0.561110         3.655130         3.228606
 H         0.850242         2.622301         1.377486
 H         0.873478         1.328673         2.578673
