19
Iteration:  1403
 O        -2.813722         3.782402         1.370814
 C        -1.875946         2.757433         1.767470
 C        -1.346332         2.048772         0.529516
 C        -0.517664         0.963000         1.194008
 O         0.076127        -0.087225         0.391843
 C        -1.601722         0.504748         2.327531
 C        -2.118008         1.807423         2.870704
 C        -0.714598         2.751517         2.730145
 C         0.387724         1.765002         2.269496
 H        -2.632937         4.185099         0.475826
 H        -2.317767         1.602000         0.082677
 H        -0.707836         2.859221         0.102417
 H        -0.636719        -0.199107        -0.326152
 H        -2.415227        -0.148885         1.973658
 H        -1.189410        -0.086088         3.151076
 H        -2.641663         1.857854         3.793799
 H        -0.596050         3.541496         3.483064
 H         1.251984         2.249423         1.742331
 H         0.801666         1.238258         3.159757
