19
Iteration:  4054
 O        -2.705382         3.836782         1.546139
 C        -1.965282         2.685728         1.630237
 C        -1.471018         1.856301         0.442999
 C        -0.549930         0.940442         1.271552
 O        -0.040266        -0.145907         0.503180
 C        -1.514505         0.455712         2.393865
 C        -2.014121         1.782184         2.895108
 C        -0.832928         2.822029         2.644972
 C         0.403561         2.025311         2.028435
 H        -2.157600         4.527568         1.132520
 H        -2.358304         1.356356        -0.012791
 H        -0.864863         2.329490        -0.309814
 H         0.829659        -0.320634         0.822493
 H        -2.214050        -0.265481         1.973082
 H        -0.909989        -0.175596         3.004762
 H        -2.765494         1.981389         3.662891
 H        -0.834284         3.743037         3.247409
 H         1.059643         2.625764         1.382736
 H         1.138042         1.725369         2.733270
