19
Iteration:  1343
 O        -2.748743         3.977698         1.589532
 C        -1.958434         2.765247         1.661302
 C        -1.518453         1.968732         0.446974
 C        -0.522169         0.917510         1.188311
 O         0.208118        -0.227810         0.644638
 C        -1.618746         0.443130         2.194801
 C        -2.031699         1.749974         2.800234
 C        -0.811894         2.706445         2.636115
 C         0.324208         1.919862         2.125393
 H        -2.171618         4.731589         1.808037
 H        -2.281581         1.458141        -0.112525
 H        -1.079791         2.656677        -0.261147
 H         0.888354         0.070047         0.078717
 H        -2.540051         0.086107         1.712906
 H        -1.267687        -0.309025         2.929184
 H        -2.828411         1.858263         3.560738
 H        -0.698998         3.359889         3.520084
 H         1.111569         2.448543         1.523562
 H         0.835933         1.383852         2.969958
