19
Iteration:  4950charge 0 multiplicity 1
 O        -2.855107         3.708953         1.627096
 C        -1.782507         2.766042         1.489215
 C        -1.378964         1.848812         0.465527
 C        -0.670253         0.915936         1.366137
 O         0.001206        -0.001838         0.396219
 C        -1.610813         0.478316         2.441899
 C        -1.846705         1.906775         2.874186
 C        -0.698185         2.901987         2.620983
 C         0.343699         1.832132         2.089850
 H        -3.297452         3.996650         0.839857
 H        -2.240572         1.277630         0.051399
 H        -0.669062         2.200594        -0.357992
 H         0.515097        -0.627661         0.937893
 H        -2.584700         0.072686         2.100400
 H        -1.141833        -0.142626         3.255869
 H        -2.674599         2.239999         3.430962
 H        -0.724035         3.842069         3.083876
 H         0.996399         2.246705         1.420569
 H         0.881139         1.182844         2.802366
