19
Iteration:  2718charge 0 multiplicity 1
 O        -2.840069         3.915744         1.476582
 C        -1.813351         2.837714         1.632973
 C        -1.322696         1.938243         0.430355
 C        -0.623271         0.892337         1.285820
 O         0.115154        -0.016265         0.481448
 C        -1.611833         0.438885         2.327956
 C        -2.031179         1.867061         2.837789
 C        -0.752638         2.707536         2.736379
 C         0.284442         1.736899         2.139665
 H        -3.730447         3.611768         1.682692
 H        -2.127780         1.433448        -0.096150
 H        -0.692475         2.355389        -0.372125
 H         0.858287        -0.343424         0.960188
 H        -2.400098        -0.146449         1.842644
 H        -0.940056        -0.102730         3.072526
 H        -2.761361         2.262453         3.509464
 H        -0.322370         3.482331         3.340154
 H         0.920068         2.364066         1.365101
 H         0.911709         1.075044         2.782943
