19
Iteration:  4694charge 0 multiplicity 1
 O        -2.752835         3.824469         1.453870
 C        -1.970889         2.707390         1.659426
 C        -1.558144         1.842076         0.508061
 C        -0.527790         0.992369         1.215874
 O        -0.009158        -0.125696         0.508018
 C        -1.452036         0.520814         2.455007
 C        -1.948911         1.786944         2.897020
 C        -0.768094         2.823765         2.590842
 C         0.358149         1.927958         1.968317
 H        -2.556831         4.490269         2.109716
 H        -2.272723         1.167003        -0.064476
 H        -1.082390         2.478376        -0.300076
 H         0.316706        -0.803440         1.032316
 H        -2.294765        -0.144486         2.211804
 H        -0.781086         0.077871         3.271794
 H        -2.594033         1.971233         3.776252
 H        -0.411293         3.666054         3.182560
 H         0.889430         2.500633         1.212182
 H         1.057527         1.597897         2.742707
