19
Iteration:  2471
 O        -2.660060         3.983815         1.524237
 C        -2.022155         2.702942         1.679241
 C        -1.432940         1.900403         0.448474
 C        -0.519877         0.913007         1.262818
 O         0.124156        -0.107042         0.450236
 C        -1.579223         0.455275         2.345420
 C        -1.985618         1.810128         2.912266
 C        -0.848711         2.693823         2.627687
 C         0.330290         1.955705         2.092504
 H        -3.520247         3.904342         1.078217
 H        -2.246601         1.276909         0.022072
 H        -0.907321         2.439841        -0.277822
 H         0.497133        -0.710251         1.050472
 H        -2.449745        -0.192898         2.057208
 H        -1.083119        -0.179211         3.110316
 H        -2.743015         1.971438         3.732731
 H        -0.668343         3.656361         3.123563
 H         0.922324         2.541746         1.390353
 H         1.150924         1.493822         2.807754
