19
Iteration:  4705charge 0 multiplicity 1
 O        -2.792740         3.914465         1.409483
 C        -1.991634         2.710659         1.693531
 C        -1.555952         1.772933         0.521967
 C        -0.548332         0.884251         1.322863
 O         0.062948        -0.075540         0.418239
 C        -1.509220         0.441360         2.478675
 C        -1.908526         1.877402         2.975509
 C        -0.747569         2.746445         2.555935
 C         0.415462         2.009142         1.946116
 H        -2.500379         4.571987         2.045796
 H        -2.426371         1.146048         0.152315
 H        -1.043466         2.348784        -0.296778
 H         0.249537        -0.787895         1.028933
 H        -2.350700        -0.027568         1.975026
 H        -1.142066        -0.326041         3.232862
 H        -2.639526         1.982815         3.783582
 H        -0.746734         3.662050         3.115723
 H         0.988702         2.589558         1.238160
 H         1.108909         1.513148         2.645025
