19
Iteration:  4453charge 0 multiplicity 1
 O        -2.807692         3.933769         1.478907
 C        -1.919944         2.805821         1.691532
 C        -1.582535         1.848644         0.499007
 C        -0.588100         0.824443         1.256633
 O         0.052765        -0.182593         0.519536
 C        -1.394104         0.451147         2.490627
 C        -1.963902         1.804921         2.854876
 C        -0.726304         2.741681         2.601152
 C         0.283878         2.014466         1.880405
 H        -2.200962         4.717546         1.598134
 H        -2.577634         1.471904         0.181908
 H        -1.083726         2.337366        -0.384098
 H         0.646740        -0.536012         1.168900
 H        -2.168607        -0.256110         2.239929
 H        -0.819198         0.096268         3.377851
 H        -2.607378         1.952596         3.686949
 H        -0.613461         3.447795         3.400509
 H         0.721919         2.610682         1.041069
 H         1.138261         1.640629         2.525463
