19
Iteration:  1107
 O        -2.698047         3.783661         1.684833
 C        -1.784809         2.785625         1.602529
 C        -1.392625         2.108933         0.400628
 C        -0.576828         0.907420         1.220617
 O         0.071265        -0.191626         0.638752
 C        -1.634361         0.484573         2.150589
 C        -2.058980         1.829514         2.747630
 C        -0.789636         2.735467         2.713123
 C         0.246943         1.899380         2.112929
 H        -3.478599         3.554442         1.212513
 H        -2.221536         1.746731        -0.116015
 H        -0.729764         2.603618        -0.280014
 H         1.022165        -0.183475         0.874496
 H        -2.316387        -0.262421         1.718698
 H        -0.961414        -0.010357         2.930399
 H        -2.808992         2.063353         3.466218
 H        -0.589506         3.554896         3.407075
 H         0.915385         2.561590         1.496801
 H         0.753609         1.284753         2.852216
