19
Iteration:  1597charge 0 multiplicity 1
 O        -2.729176         3.915830         1.657534
 C        -1.881144         2.811587         1.638602
 C        -1.360134         1.985235         0.462974
 C        -0.630107         0.918100         1.206391
 O         0.257886        -0.129008         0.731151
 C        -1.647385         0.373038         2.230211
 C        -2.104014         1.824978         2.720250
 C        -0.806881         2.715594         2.696968
 C         0.267076         1.893799         1.947047
 H        -2.329233         4.817191         1.625075
 H        -2.231278         1.558574        -0.086470
 H        -0.721585         2.482621        -0.219103
 H        -0.335692        -0.830504         0.224832
 H        -2.386976        -0.321732         1.774347
 H        -1.133052        -0.276951         3.078061
 H        -2.889508         1.890224         3.485617
 H        -0.625332         3.342340         3.604683
 H         0.761389         2.532764         1.132575
 H         1.061106         1.350463         2.452817
