19
Iteration:  2950
 O        -2.615468         3.884131         1.433238
 C        -1.883198         2.774170         1.654425
 C        -1.400901         2.033688         0.467698
 C        -0.600346         0.978257         1.288917
 O         0.046710        -0.002302         0.446535
 C        -1.568285         0.407756         2.379435
 C        -2.086325         1.699317         2.822370
 C        -0.806443         2.696612         2.679075
 C         0.300132         1.879601         2.181176
 H        -3.503636         3.525866         1.227719
 H        -2.151483         1.672527        -0.242359
 H        -0.781470         2.619735        -0.173324
 H         0.571490        -0.631445         0.856095
 H        -2.347166        -0.286522         1.977765
 H        -0.882943        -0.175173         3.153405
 H        -2.835742         1.726180         3.618270
 H        -0.764378         3.532215         3.364355
 H         1.168400         2.403213         1.588711
 H         0.847113         1.281051         2.980001
