19
Iteration:  3778charge 0 multiplicity 1
 O        -2.789904         3.884894         1.430305
 C        -1.956366         2.681796         1.604669
 C        -1.421863         1.847321         0.484713
 C        -0.659485         0.899353         1.303506
 O         0.080934        -0.009911         0.431224
 C        -1.554048         0.386727         2.446061
 C        -1.920714         1.833243         2.928204
 C        -0.798275         2.818763         2.609321
 C         0.271063         1.833279         2.112925
 H        -2.286324         4.684348         1.572296
 H        -2.087338         1.667242        -0.356763
 H        -0.601532         2.420515        -0.032118
 H         1.088756         0.164784         0.551728
 H        -2.407653        -0.236373         2.143955
 H        -0.861660        -0.307164         3.061333
 H        -2.609310         2.031637         3.693115
 H        -0.601313         3.587251         3.343291
 H         1.092124         2.354338         1.553125
 H         0.752359         1.422584         2.915997
