19
Iteration:  4342
 O        -2.729099         3.874944         1.582473
 C        -1.903256         2.698791         1.633227
 C        -1.605999         1.829703         0.549000
 C        -0.550104         0.918783         1.282693
 O        -0.064788        -0.180074         0.460419
 C        -1.446072         0.469044         2.474166
 C        -1.844671         1.836168         2.905991
 C        -0.754010         2.864611         2.483995
 C         0.384755         2.047262         1.980496
 H        -3.208046         3.931011         0.747540
 H        -2.442233         1.230652         0.105138
 H        -1.097191         2.446135        -0.281764
 H         0.375805        -0.927183         0.995470
 H        -2.325449        -0.118221         2.112940
 H        -1.061868        -0.061015         3.367465
 H        -2.564375         1.909752         3.767609
 H        -0.706916         3.818736         3.009328
 H         1.000769         2.391157         1.081690
 H         1.038435         1.691101         2.804571
