19
Iteration:  2550charge 0 multiplicity 1
 O        -2.768844         3.854870         1.415282
 C        -1.902195         2.792127         1.628112
 C        -1.354573         2.033945         0.507518
 C        -0.485912         0.930517         1.313125
 O         0.046918        -0.110085         0.508859
 C        -1.595949         0.384431         2.375636
 C        -1.967104         1.814784         2.820705
 C        -0.840494         2.764144         2.663027
 C         0.407668         1.869379         2.166827
 H        -3.594064         3.645122         1.843253
 H        -2.060422         1.490675        -0.224175
 H        -0.737453         2.645349        -0.107791
 H        -0.542211        -0.353931        -0.191830
 H        -2.512982        -0.059480         1.915834
 H        -1.039060        -0.314218         3.043758
 H        -2.706566         2.070632         3.537157
 H        -0.794513         3.579650         3.373491
 H         1.057329         2.287813         1.362393
 H         1.025454         1.422318         3.072150
