19
Iteration:  1301charge 0 multiplicity 1
 O        -2.576502         3.829919         1.395742
 C        -1.884008         2.675746         1.696517
 C        -1.429065         1.971085         0.516563
 C        -0.551843         0.896629         1.272652
 O         0.065786        -0.000363         0.368541
 C        -1.655553         0.461744         2.397040
 C        -2.091601         1.795140         2.813304
 C        -0.850763         2.715864         2.766310
 C         0.313350         1.853150         2.097020
 H        -3.029900         4.185022         2.156613
 H        -2.356620         1.631862        -0.100676
 H        -0.941139         2.710612        -0.131582
 H         0.982084         0.056035         0.582955
 H        -2.338179        -0.222108         1.954051
 H        -1.108167         0.050926         3.286015
 H        -2.824555         1.828860         3.647436
 H        -0.693932         3.525693         3.505867
 H         0.937988         2.601954         1.492693
 H         1.011904         1.320639         2.762007
