19
Iteration:  3429charge 0 multiplicity 1
 O        -2.878580         3.876099         1.378883
 C        -1.940128         2.776896         1.683184
 C        -1.473992         1.953278         0.504584
 C        -0.541484         0.991570         1.229612
 O         0.055547        -0.122789         0.474667
 C        -1.526422         0.419743         2.244301
 C        -1.976868         1.824846         2.821182
 C        -0.748242         2.705501         2.718377
 C         0.384471         1.859025         2.218568
 H        -2.479665         4.613519         1.912967
 H        -2.258549         1.286591         0.018769
 H        -0.904085         2.514915        -0.282303
 H         0.938876        -0.179070         0.734161
 H        -2.430254        -0.260087         1.938765
 H        -0.907375        -0.102743         3.055841
 H        -2.616150         1.854022         3.699167
 H        -0.537078         3.497999         3.450010
 H         1.124755         2.484657         1.796125
 H         0.772142         1.265517         3.078355
