19
Iteration:  3909charge 0 multiplicity 1
 O        -2.717516         3.808328         1.417165
 C        -1.898224         2.715303         1.692646
 C        -1.476725         1.836344         0.441173
 C        -0.586767         0.935661         1.301271
 O         0.114470         0.069369         0.425176
 C        -1.609137         0.424972         2.376368
 C        -2.008436         1.795750         2.925831
 C        -0.777088         2.815867         2.620342
 C         0.348852         1.885543         2.088594
 H        -2.398819         4.554432         1.957728
 H        -2.384943         1.276588         0.167778
 H        -0.928513         2.419765        -0.328335
 H         0.267546        -0.852911         0.878355
 H        -2.540736        -0.094243         2.039147
 H        -1.103490        -0.307748         3.180124
 H        -2.769291         1.952327         3.746385
 H        -0.714279         3.676679         3.281128
 H         1.070901         2.420661         1.337881
 H         0.915113         1.402158         3.004789
