19
Iteration:  4743
 O        -2.779662         3.739355         1.401170
 C        -1.918393         2.682580         1.658429
 C        -1.623408         1.840028         0.530065
 C        -0.655621         0.927934         1.267010
 O         0.106839         0.082128         0.439225
 C        -1.495719         0.511618         2.518263
 C        -1.943776         1.900340         2.956838
 C        -0.702826         2.746908         2.650322
 C         0.368792         1.851732         1.944511
 H        -2.204868         4.548763         1.308406
 H        -2.548649         1.351929         0.275607
 H        -1.232937         2.344702        -0.341869
 H         0.389569        -0.803924         0.893160
 H        -2.294345        -0.155832         2.144866
 H        -0.890158         0.043910         3.272528
 H        -2.682864         2.225128         3.709219
 H        -0.406881         3.690636         3.177556
 H         1.106453         2.347450         1.261427
 H         0.849959         1.131199         2.651077
