19
Iteration:  2636
 O        -2.586971         3.913642         1.634100
 C        -1.916289         2.738999         1.623559
 C        -1.492039         1.965142         0.364782
 C        -0.557269         0.889153         1.265275
 O         0.152291        -0.038211         0.532649
 C        -1.563680         0.431838         2.375876
 C        -2.110791         1.757615         2.771704
 C        -0.818285         2.701973         2.686540
 C         0.289767         1.949277         2.049654
 H        -3.252415         3.850074         0.957631
 H        -2.157050         1.375447        -0.245922
 H        -0.873283         2.565594        -0.155228
 H         0.017125        -0.937057         1.017811
 H        -2.358115        -0.315829         2.096935
 H        -1.163986        -0.035261         3.294659
 H        -2.940161         1.986839         3.408052
 H        -0.535437         3.674617         3.147052
 H         0.918570         2.636341         1.534280
 H         1.004920         1.390292         2.740382
