19
Iteration:   572
 O        -2.765358         3.946175         1.598426
 C        -1.934028         2.796080         1.642720
 C        -1.225098         2.071393         0.409974
 C        -0.531200         0.937100         1.283221
 O         0.139083        -0.038287         0.632285
 C        -1.639492         0.387056         2.018498
 C        -2.097208         1.662987         2.692121
 C        -0.880566         2.585739         2.758380
 C         0.261891         1.812171         2.233973
 H        -2.378534         4.721456         2.099674
 H        -1.860228         1.667055        -0.299973
 H        -0.637990         2.855874         0.025182
 H         0.835778         0.230841        -0.065461
 H        -2.503316        -0.078550         1.612237
 H        -1.280755        -0.155962         2.912367
 H        -2.906245         1.821677         3.434500
 H        -0.835081         3.339833         3.563681
 H         1.055014         2.253423         1.631506
 H         0.748479         1.182632         3.040387
