19
Iteration:  1621charge 0 multiplicity 1
 O        -2.713528         3.926797         1.666042
 C        -1.922423         2.712966         1.558847
 C        -1.534664         2.057150         0.287311
 C        -0.615212         0.932046         1.204017
 O         0.270899        -0.089456         0.732978
 C        -1.638071         0.406973         2.236914
 C        -2.028729         1.817505         2.796251
 C        -0.805770         2.687061         2.622901
 C         0.350893         1.835205         2.124704
 H        -2.240829         4.701830         1.996343
 H        -2.330449         1.639514        -0.391651
 H        -0.842092         2.635697        -0.299044
 H        -0.253868        -0.928029         0.681199
 H        -2.569888        -0.046604         1.808226
 H        -1.135960        -0.433814         2.860326
 H        -2.759199         1.936172         3.595544
 H        -0.815136         3.530151         3.251532
 H         1.078644         2.347981         1.400626
 H         0.957673         1.235115         2.857226
