19
Iteration:  2339
 O        -2.609356         3.941179         1.475835
 C        -1.987219         2.765562         1.660958
 C        -1.474492         1.878437         0.526740
 C        -0.624466         0.864981         1.315155
 O         0.128476         0.004269         0.451633
 C        -1.492052         0.336903         2.455799
 C        -2.053181         1.785293         2.912202
 C        -0.833156         2.748121         2.594194
 C         0.327004         1.981571         1.979770
 H        -3.495728         3.791631         1.041043
 H        -2.350319         1.546613        -0.186904
 H        -0.801307         2.455930        -0.087672
 H         0.352553        -0.754851         1.001208
 H        -2.306636        -0.272266         2.080921
 H        -0.854017        -0.222757         3.118582
 H        -2.738428         1.976850         3.720207
 H        -0.748291         3.595284         3.262992
 H         1.016938         2.442364         1.299444
 H         0.949072         1.392255         2.680669
