19
Iteration:  4831
 O        -2.915778         3.754838         1.437681
 C        -1.912574         2.772436         1.708956
 C        -1.603404         1.913002         0.518874
 C        -0.672324         0.904454         1.274050
 O         0.146716        -0.053312         0.433933
 C        -1.527155         0.438814         2.436836
 C        -1.846514         1.918661         2.905368
 C        -0.618922         2.852963         2.499917
 C         0.309804         1.829918         2.106721
 H        -2.437732         4.622232         1.293084
 H        -2.566251         1.488555         0.285886
 H        -1.170764         2.356650        -0.377655
 H         0.884153        -0.384087         1.084787
 H        -2.446769        -0.154554         2.142236
 H        -0.951138        -0.159038         3.104297
 H        -2.556142         1.819028         3.767781
 H        -0.242014         3.574514         3.215227
 H         1.038876         2.144119         1.298486
 H         0.870702         1.305546         2.932616
