19
Iteration:  4619charge 0 multiplicity 1
 O        -2.803453         3.745108         1.363468
 C        -1.883651         2.696394         1.646903
 C        -1.623759         1.851821         0.435954
 C        -0.640193         0.933860         1.293260
 O         0.027493         0.051789         0.447641
 C        -1.566083         0.421938         2.505796
 C        -1.767622         1.897422         3.005994
 C        -0.640396         2.805008         2.591435
 C         0.322056         1.893732         2.024177
 H        -2.575693         4.576243         1.826428
 H        -2.534776         1.174404         0.311409
 H        -1.474398         2.295165        -0.573641
 H         0.714709        -0.641615         0.824495
 H        -2.455998        -0.077028         2.210239
 H        -1.002900        -0.196780         3.255966
 H        -2.498482         2.094042         3.864988
 H        -0.470007         3.706182         3.155952
 H         1.015906         2.303384         1.304089
 H         0.962783         1.415088         2.898098
