19
Iteration:  4013charge 0 multiplicity 1
 O        -2.765854         3.947795         1.428727
 C        -1.880675         2.802911         1.691876
 C        -1.506053         1.895460         0.486453
 C        -0.655953         0.878088         1.312324
 O         0.133042        -0.014467         0.435907
 C        -1.529621         0.352833         2.418175
 C        -1.939832         1.816818         2.931386
 C        -0.778276         2.795338         2.658786
 C         0.336789         1.894431         2.047935
 H        -3.223591         3.732010         0.563690
 H        -2.290069         1.290729        -0.053304
 H        -0.966165         2.445249        -0.346919
 H         0.443931        -0.821659         0.904518
 H        -2.475272        -0.280350         2.231385
 H        -0.845373        -0.155788         3.232975
 H        -2.657255         1.867954         3.810922
 H        -0.635450         3.565841         3.412573
 H         0.961505         2.301531         1.193772
 H         0.931402         1.304103         2.761448
