19
Iteration:  3981charge 0 multiplicity 1
 O        -2.772555         3.799805         1.489234
 C        -1.915110         2.720470         1.606663
 C        -1.434049         1.849372         0.410553
 C        -0.568615         0.957181         1.276259
 O         0.080198        -0.003668         0.464340
 C        -1.601063         0.527501         2.363746
 C        -1.973992         1.878317         2.937719
 C        -0.746645         2.787594         2.623946
 C         0.425501         1.872394         2.141700
 H        -3.539101         3.549460         1.999287
 H        -2.145344         1.181592        -0.099329
 H        -0.929024         2.593523        -0.240256
 H        -0.035171        -0.987331         0.740757
 H        -2.490290        -0.030837         1.972434
 H        -1.212884        -0.149191         3.144020
 H        -2.738877         2.245819         3.639991
 H        -0.606079         3.758022         3.082043
 H         1.216692         2.128012         1.435814
 H         1.004860         1.267990         2.845051
