19
Iteration:  2804
 O        -2.715408         3.975907         1.374462
 C        -1.926989         2.791349         1.717269
 C        -1.434347         1.959655         0.521145
 C        -0.645859         0.913307         1.264462
 O         0.192750         0.007976         0.418246
 C        -1.540498         0.437215         2.360975
 C        -2.059918         1.745430         2.857370
 C        -0.759935         2.743179         2.713615
 C         0.298303         1.749130         2.126729
 H        -3.474115         3.548318         0.969310
 H        -2.318317         1.540346         0.013060
 H        -0.888061         2.593157        -0.061359
 H         0.530301        -0.854286         0.895105
 H        -2.468868        -0.123155         2.133678
 H        -0.904398         0.116873         3.261194
 H        -2.749896         1.855850         3.662769
 H        -0.688121         3.604161         3.399034
 H         1.133359         2.302633         1.538110
 H         0.701018         1.014479         2.867540
