19
Iteration:   506charge 0 multiplicity 1
 O        -2.635664         4.014166         1.310580
 C        -1.927225         2.832140         1.708335
 C        -1.355830         2.090285         0.526058
 C        -0.527087         0.954669         1.306657
 O         0.166698         0.036295         0.496334
 C        -1.705938         0.268500         2.118786
 C        -2.114273         1.649020         2.800540
 C        -0.888983         2.583437         2.823149
 C         0.306053         1.768792         2.272836
 H        -3.196789         4.192051         2.060402
 H        -1.962162         1.558943        -0.124459
 H        -0.793730         2.858696         0.020366
 H         0.734082         0.493326        -0.106234
 H        -2.350925        -0.400749         1.618508
 H        -1.209770        -0.375868         2.899051
 H        -2.749588         1.557713         3.656812
 H        -0.689403         3.371049         3.534765
 H         1.152274         2.284115         1.788075
 H         0.803012         1.295218         3.167657
