19
Iteration:  3316charge 0 multiplicity 1
 O        -2.755113         3.935365         1.517527
 C        -1.887391         2.787691         1.640838
 C        -1.367768         1.871417         0.455521
 C        -0.554891         0.904259         1.340179
 O         0.093384        -0.042424         0.479410
 C        -1.652929         0.416293         2.326547
 C        -2.105439         1.802330         2.755768
 C        -0.759140         2.735132         2.730672
 C         0.361335         1.840893         2.127102
 H        -3.622702         3.593848         1.825396
 H        -2.025760         1.433803        -0.286321
 H        -0.484782         2.270637        -0.195103
 H         0.879671         0.435771         0.067956
 H        -2.347392        -0.302687         1.872063
 H        -1.240245        -0.129518         3.239891
 H        -2.683886         1.943773         3.647899
 H        -0.521714         3.617563         3.286411
 H         0.776521         2.489901         1.346902
 H         1.123106         1.465438         2.835274
