19
Iteration:   860charge 0 multiplicity 1
 O        -2.798939         3.857280         1.686976
 C        -1.907611         2.732057         1.624829
 C        -1.229344         2.090792         0.319203
 C        -0.496231         0.937440         1.245518
 O         0.083273        -0.028198         0.676512
 C        -1.710581         0.426577         2.139584
 C        -2.101311         1.736400         2.760575
 C        -0.800815         2.654963         2.700597
 C         0.312030         1.828702         2.169686
 H        -2.523159         4.339816         0.914686
 H        -1.946470         1.677844        -0.371703
 H        -0.482049         2.730179        -0.082750
 H         0.974692         0.012349         0.375433
 H        -2.447198        -0.098332         1.444409
 H        -1.518376        -0.379478         2.845054
 H        -2.933733         1.994169         3.480782
 H        -0.737524         3.395790         3.513881
 H         1.139829         2.365100         1.724842
 H         0.797377         1.211860         2.941988
