19
Iteration:  1747charge 0 multiplicity 1
 O        -2.728473         3.858540         1.644801
 C        -1.911543         2.723290         1.597260
 C        -1.373123         1.987180         0.354137
 C        -0.608982         0.902186         1.175856
 O         0.178351        -0.164277         0.642325
 C        -1.635385         0.485460         2.340463
 C        -2.117303         1.806386         2.747489
 C        -0.808314         2.704557         2.713130
 C         0.274675         1.883424         2.072958
 H        -2.125841         4.624884         1.855741
 H        -2.061278         1.423064        -0.262741
 H        -0.811706         2.759129        -0.280219
 H         1.019378         0.261732         0.169425
 H        -2.513959        -0.043257         1.983630
 H        -1.129731        -0.032938         3.103637
 H        -3.010407         1.983412         3.351222
 H        -0.467795         3.526483         3.313231
 H         0.865914         2.544831         1.453979
 H         0.863760         1.322541         2.818709
