19
Iteration:  1951charge 0 multiplicity 1
 O        -2.702341         3.867986         1.400826
 C        -1.883994         2.774049         1.699166
 C        -1.358246         1.885259         0.559647
 C        -0.564034         0.940367         1.378649
 O         0.076048         0.047594         0.383187
 C        -1.638146         0.396552         2.328291
 C        -2.034975         1.796214         2.845503
 C        -0.768845         2.713732         2.755070
 C         0.370771         1.935876         2.092290
 H        -3.603479         3.441264         1.363935
 H        -2.182892         1.352305        -0.085425
 H        -0.816301         2.334426        -0.334455
 H        -0.129803        -0.871928         0.742266
 H        -2.376060        -0.232076         1.738487
 H        -1.180528        -0.156229         3.184500
 H        -2.702950         1.857501         3.672618
 H        -0.657665         3.659224         3.247898
 H         0.819036         2.537490         1.265246
 H         1.063387         1.535856         2.864901
