19
Iteration:  3274charge 0 multiplicity 1
 O        -2.714719         3.880595         1.386397
 C        -1.908482         2.746567         1.681331
 C        -1.442595         1.939873         0.384752
 C        -0.630297         0.952851         1.191672
 O         0.055873        -0.100326         0.496741
 C        -1.488576         0.497128         2.244742
 C        -1.986087         1.823845         2.989148
 C        -0.826945         2.741677         2.776653
 C         0.355424         1.837582         2.206025
 H        -3.574848         3.768533         1.797144
 H        -2.150811         1.479199        -0.284492
 H        -0.925898         2.699296        -0.219280
 H         1.033108         0.251185         0.506195
 H        -2.413583        -0.080631         1.883541
 H        -1.044646        -0.392882         2.845792
 H        -2.633543         1.729240         3.848086
 H        -0.868319         3.670975         3.331652
 H         1.152338         2.327394         1.766258
 H         0.772539         0.991845         2.807681
