19
Iteration:  1964charge 0 multiplicity 1
 O        -2.760330         3.899860         1.475712
 C        -1.943374         2.763138         1.667756
 C        -1.380695         1.934184         0.510931
 C        -0.499678         0.849808         1.264755
 O         0.158069        -0.057284         0.478723
 C        -1.617862         0.438859         2.327915
 C        -2.014986         1.807153         2.849743
 C        -0.820356         2.756648         2.665509
 C         0.366118         1.929447         2.074916
 H        -3.675327         3.820226         1.711026
 H        -2.167172         1.392551        -0.029502
 H        -0.634303         2.644511         0.037094
 H        -0.217664        -0.943002         0.465467
 H        -2.618171         0.012510         1.894982
 H        -1.274371        -0.346034         3.027733
 H        -2.770183         2.056341         3.622392
 H        -0.578328         3.334257         3.583616
 H         0.979946         2.539430         1.375923
 H         1.204407         1.662690         2.806246
