19
Iteration:  3278charge 0 multiplicity 1
 O        -2.722922         3.857587         1.380912
 C        -1.877275         2.781200         1.690185
 C        -1.459059         1.941341         0.384606
 C        -0.618725         0.939557         1.198119
 O         0.070676        -0.068484         0.478545
 C        -1.534853         0.454194         2.260529
 C        -1.996416         1.821407         2.963614
 C        -0.782595         2.739908         2.776346
 C         0.325119         1.836084         2.238767
 H        -3.614622         3.793045         1.784562
 H        -2.205839         1.338653        -0.220590
 H        -0.907950         2.649040        -0.181784
 H         0.938730         0.200414         0.452819
 H        -2.395461        -0.062646         1.819621
 H        -1.066153        -0.230345         2.918390
 H        -2.675966         1.786845         3.859267
 H        -0.730568         3.726764         3.280352
 H         1.221565         2.368438         1.728825
 H         0.871426         1.041511         2.766062
