19
Iteration:  3652
 O        -2.754124         3.789138         1.445958
 C        -1.864566         2.751800         1.683149
 C        -1.512929         2.018082         0.501752
 C        -0.507308         0.985994         1.203553
 O         0.013246        -0.156527         0.604047
 C        -1.517683         0.493353         2.295165
 C        -2.021203         1.798414         2.817933
 C        -0.774032         2.706048         2.748854
 C         0.393406         1.914060         2.149781
 H        -2.712307         4.192915         0.536928
 H        -2.298810         1.304298         0.385571
 H        -1.138201         2.672629        -0.192426
 H         0.004086         0.054115        -0.390005
 H        -2.303307        -0.208513         1.833645
 H        -0.968059         0.019627         3.136767
 H        -2.797952         1.851179         3.514214
 H        -0.719105         3.516803         3.456981
 H         0.967758         2.548434         1.566699
 H         1.145778         1.308516         2.668858
