19
Iteration:  4745charge 0 multiplicity 1
 O        -2.788374         3.739748         1.409839
 C        -1.928671         2.692113         1.652636
 C        -1.626855         1.839872         0.503883
 C        -0.638985         0.942883         1.255233
 O         0.093411         0.061936         0.446653
 C        -1.482114         0.503636         2.516148
 C        -1.947464         1.914303         2.956061
 C        -0.702591         2.735264         2.667034
 C         0.371003         1.849639         1.957907
 H        -2.173850         4.498310         1.295577
 H        -2.543866         1.358863         0.239344
 H        -1.188344         2.380091        -0.333544
 H         0.414996        -0.793375         0.845480
 H        -2.300992        -0.200802         2.149558
 H        -0.843724         0.087969         3.264954
 H        -2.665418         2.266952         3.765446
 H        -0.418118         3.699120         3.142115
 H         1.133293         2.366262         1.279537
 H         0.840743         1.177410         2.645027
