19
Iteration:   703
 O        -2.726587         3.973258         1.583154
 C        -1.875098         2.751492         1.713833
 C        -1.256217         2.011867         0.423549
 C        -0.520577         0.949213         1.213549
 O         0.225736        -0.085979         0.646780
 C        -1.740118         0.392409         2.074942
 C        -2.194928         1.692792         2.675016
 C        -0.915127         2.683826         2.748607
 C         0.341575         1.824077         2.199924
 H        -2.638422         4.245942         2.515106
 H        -2.036069         1.763674        -0.232460
 H        -0.608178         2.767930        -0.025691
 H         0.785877         0.195296        -0.165161
 H        -2.503781        -0.007753         1.385582
 H        -1.510435        -0.395691         2.819676
 H        -2.988915         1.882949         3.382100
 H        -0.703015         3.368921         3.563434
 H         0.955910         2.463681         1.632155
 H         0.861106         1.247137         2.966200
