19
Iteration:  3876
 O        -2.808573         3.875073         1.484158
 C        -1.882270         2.816876         1.639866
 C        -1.463016         1.810598         0.439981
 C        -0.556945         0.924644         1.294516
 O         0.053606         0.017399         0.397482
 C        -1.527200         0.461644         2.405077
 C        -2.023730         1.850303         2.870629
 C        -0.811762         2.710437         2.699545
 C         0.391746         1.820011         2.137594
 H        -2.477520         4.536919         0.882068
 H        -2.311676         1.161250         0.095101
 H        -1.060571         2.158150        -0.548899
 H         0.906434        -0.353318         0.716256
 H        -2.435062        -0.104310         2.107270
 H        -0.971651        -0.009761         3.345086
 H        -2.802521         2.053955         3.630823
 H        -0.700367         3.380709         3.527406
 H         1.131868         2.417714         1.482164
 H         0.945145         1.149751         2.915551
