19
Iteration:  4808charge 0 multiplicity 1
 O        -2.937662         3.678055         1.619666
 C        -1.897902         2.736493         1.672148
 C        -1.423524         1.904781         0.406436
 C        -0.572004         0.952973         1.232766
 O         0.002082        -0.128452         0.563590
 C        -1.628044         0.567486         2.396716
 C        -1.857978         1.937497         2.900626
 C        -0.677271         2.738187         2.629042
 C         0.445362         1.938996         1.914077
 H        -2.805621         4.167800         0.799743
 H        -2.313723         1.497955        -0.069554
 H        -0.782559         2.345238        -0.370557
 H         0.808137        -0.334853         1.037742
 H        -2.618047         0.166750         2.118077
 H        -1.112347        -0.126514         3.049078
 H        -2.725663         2.109980         3.608458
 H        -0.640223         3.604876         3.322882
 H         1.066975         2.467346         1.183126
 H         1.094289         1.384209         2.682780
