19
Iteration:  3786charge 0 multiplicity 1
 O        -2.814716         3.814317         1.485684
 C        -1.880973         2.733814         1.608025
 C        -1.455111         1.917374         0.468392
 C        -0.597197         0.861915         1.222543
 O         0.070179        -0.005349         0.475739
 C        -1.585530         0.386303         2.435825
 C        -1.958557         1.836764         2.861473
 C        -0.737973         2.812232         2.601597
 C         0.251735         1.852682         2.152794
 H        -2.270763         4.615179         1.421948
 H        -2.270478         1.466763        -0.151315
 H        -0.720895         2.441056        -0.206523
 H         1.112005         0.085383         0.568911
 H        -2.418215        -0.290118         2.141624
 H        -0.816567        -0.133468         3.181975
 H        -2.604652         2.170654         3.673024
 H        -0.534833         3.738931         3.196417
 H         1.083984         2.294271         1.581520
 H         0.576531         1.249608         3.106062
