19
Iteration:  4530
 O        -2.997182         3.721491         1.565223
 C        -1.922060         2.858155         1.649969
 C        -1.560243         1.898205         0.493737
 C        -0.594600         0.850728         1.298526
 O         0.092537        -0.094972         0.479934
 C        -1.589132         0.566327         2.446878
 C        -1.842457         1.994755         2.860839
 C        -0.588257         2.717731         2.570888
 C         0.427873         1.850192         1.950561
 H        -3.108236         4.228360         0.751554
 H        -2.359012         1.366849        -0.087305
 H        -1.045822         2.457657        -0.349522
 H         0.510629        -0.815592         1.120032
 H        -2.392478        -0.029944         2.090522
 H        -1.040675         0.105100         3.298213
 H        -2.281444         2.298383         3.796447
 H        -0.344258         3.440044         3.368783
 H         1.276390         2.288956         1.372393
 H         0.950439         1.202510         2.767743
