19
Iteration:  3948
 O        -2.852734         3.849500         1.443291
 C        -1.822764         2.843276         1.680178
 C        -1.433352         2.018484         0.500372
 C        -0.522687         0.906326         1.222813
 O         0.058422        -0.196104         0.579209
 C        -1.515505         0.423595         2.342604
 C        -2.023031         1.744683         2.811243
 C        -0.812019         2.775659         2.683937
 C         0.419687         1.973966         1.989213
 H        -3.111029         4.163999         2.322708
 H        -2.276528         1.675992        -0.118971
 H        -0.866066         2.650307        -0.215058
 H        -0.165783        -0.923369         1.128852
 H        -2.201615        -0.250300         1.810678
 H        -0.832004        -0.006128         3.019969
 H        -2.760382         2.026632         3.545053
 H        -0.679143         3.478435         3.503499
 H         0.884593         2.406234         1.164347
 H         0.908220         1.490938         2.816437
