19
Iteration:  1732
 O        -2.748080         3.810364         1.712999
 C        -1.835779         2.801568         1.561710
 C        -1.421470         1.944204         0.358473
 C        -0.528354         0.965213         1.287802
 O         0.169372        -0.127576         0.664670
 C        -1.660396         0.475009         2.223150
 C        -2.071533         1.875452         2.741030
 C        -0.832668         2.681776         2.674729
 C         0.295977         1.817554         2.123574
 H        -2.371608         4.580503         1.240807
 H        -2.365163         1.571692        -0.067567
 H        -0.765246         2.369761        -0.407394
 H         0.495982         0.172197        -0.206989
 H        -2.398728        -0.239615         1.697564
 H        -1.213033        -0.134248         3.068872
 H        -2.803137         2.155915         3.499769
 H        -0.992767         3.638908         3.248460
 H         1.037988         2.448123         1.541676
 H         0.959337         1.174997         2.821509
