19
Iteration:  1830charge 0 multiplicity 1
 O        -2.815477         3.908257         1.377240
 C        -1.900070         2.835037         1.641547
 C        -1.361706         1.952628         0.515926
 C        -0.606176         0.878808         1.332810
 O         0.158925         0.031208         0.468486
 C        -1.569733         0.394430         2.376326
 C        -2.037133         1.783776         2.854817
 C        -0.767651         2.729930         2.655901
 C         0.366672         1.812444         2.114054
 H        -3.317790         4.038289         2.186275
 H        -2.048591         1.507509        -0.275768
 H        -0.613186         2.536378        -0.046714
 H        -0.456124        -0.700251         0.265895
 H        -2.379116        -0.213068         1.842476
 H        -1.153463        -0.308724         3.157816
 H        -2.757620         2.118038         3.625367
 H        -0.580071         3.501195         3.431462
 H         1.283567         2.078385         1.523944
 H         0.715532         1.176266         2.962425
