19
Iteration:  1994
 O        -2.775340         3.864137         1.650404
 C        -1.879311         2.774449         1.589888
 C        -1.453461         2.002182         0.382957
 C        -0.591219         0.936159         1.131246
 O         0.171761        -0.072840         0.782678
 C        -1.520570         0.472677         2.201807
 C        -2.027504         1.794734         2.804251
 C        -0.747745         2.757973         2.594221
 C         0.318434         1.829044         2.104498
 H        -3.674581         3.622558         2.017581
 H        -2.311645         1.456638        -0.260467
 H        -0.954409         2.625654        -0.470213
 H        -0.154699        -0.599474         0.079723
 H        -2.408364        -0.162714         2.061180
 H        -0.851102        -0.117483         2.867767
 H        -2.834344         1.977656         3.508937
 H        -0.525911         3.586353         3.296922
 H         1.099818         2.365962         1.503309
 H         0.772324         1.183918         2.878014
