19
Iteration:  1090charge 0 multiplicity 1
 O        -2.705646         4.004911         1.697713
 C        -1.898564         2.769358         1.653637
 C        -1.378119         1.993876         0.370761
 C        -0.569643         0.968058         1.225518
 O         0.143781        -0.102476         0.666374
 C        -1.662421         0.352593         2.280775
 C        -2.111892         1.771648         2.694742
 C        -0.802201         2.688129         2.633705
 C         0.385654         1.826886         2.032342
 H        -3.564120         3.726702         1.382620
 H        -2.188578         1.446330        -0.251373
 H        -0.708242         2.614007        -0.329928
 H         1.092425         0.112380         0.877277
 H        -2.548829        -0.040246         1.741166
 H        -1.371663        -0.289242         3.088715
 H        -2.950146         1.872122         3.441684
 H        -0.720407         3.444009         3.428224
 H         1.087338         2.404333         1.423395
 H         0.985462         1.228103         2.791742
