19
Iteration:  4565
 O        -2.735035         3.827686         1.559902
 C        -1.955721         2.695693         1.604414
 C        -1.487499         1.781154         0.446604
 C        -0.583826         0.917571         1.269137
 O        -0.105961        -0.153786         0.551110
 C        -1.432929         0.457790         2.414014
 C        -1.873229         1.852189         2.941776
 C        -0.794892         2.797010         2.571581
 C         0.337462         2.145911         1.897135
 H        -2.229708         4.619037         1.731280
 H        -2.224204         1.141436        -0.082658
 H        -0.843488         2.351459        -0.190656
 H         0.520737        -0.767500         1.097744
 H        -2.224473        -0.167071         2.043760
 H        -0.903138        -0.180470         3.160007
 H        -2.637382         1.773829         3.793079
 H        -0.758012         3.684127         3.208037
 H         0.846247         2.713203         1.149437
 H         1.059506         1.680054         2.683707
