19
Iteration:  2503charge 0 multiplicity 1
 O        -2.669781         3.915037         1.563378
 C        -1.865511         2.781240         1.644680
 C        -1.477750         1.960579         0.406945
 C        -0.643625         0.886990         1.278723
 O         0.113787        -0.072206         0.625775
 C        -1.606667         0.388289         2.326646
 C        -2.004324         1.773293         2.809852
 C        -0.752011         2.694303         2.615836
 C         0.289113         1.910980         2.069018
 H        -3.451967         3.735219         1.032793
 H        -2.430128         1.446706         0.143245
 H        -0.953295         2.376273        -0.461731
 H         1.006556         0.460112         0.465853
 H        -2.472043        -0.366612         2.072831
 H        -0.917513         0.070280         3.153627
 H        -2.767058         2.012982         3.615377
 H        -0.593410         3.597378         3.215879
 H         0.801390         2.512714         1.276696
 H         1.078628         1.320119         2.754935
