19
Iteration:   447
 O        -2.755868         3.917842         1.658531
 C        -1.885400         2.812981         1.645284
 C        -1.284175         2.120979         0.441508
 C        -0.477505         0.978282         1.255686
 O         0.098748        -0.143927         0.619627
 C        -1.654954         0.397726         2.094743
 C        -2.100426         1.725356         2.655483
 C        -0.853910         2.716589         2.751708
 C         0.315387         1.786780         2.203592
 H        -3.566528         3.566708         1.220716
 H        -1.844711         1.725718        -0.460489
 H        -0.598711         2.866187        -0.038742
 H         1.044337         0.098780         0.301576
 H        -2.329846        -0.030143         1.293059
 H        -1.284968        -0.322236         2.830937
 H        -2.807860         1.779909         3.506084
 H        -0.816547         3.397746         3.613201
 H         1.237402         2.277184         1.732297
 H         0.446372         1.195057         3.093702
