19
Iteration:  4802
 O        -2.927096         3.686919         1.655264
 C        -1.892271         2.706758         1.635001
 C        -1.384308         1.923331         0.403865
 C        -0.601020         0.963185         1.269479
 O        -0.038634        -0.157286         0.571544
 C        -1.626764         0.569023         2.398581
 C        -1.901655         1.888585         2.859565
 C        -0.661893         2.774341         2.603941
 C         0.469030         1.989387         1.959540
 H        -2.891360         4.106029         0.788347
 H        -2.231593         1.407142        -0.090361
 H        -0.777306         2.441769        -0.355348
 H         0.769291        -0.430690         0.952746
 H        -2.523794         0.019902         1.992204
 H        -1.196660        -0.160004         3.128197
 H        -2.664614         2.040658         3.581950
 H        -0.489351         3.558595         3.296960
 H         1.007676         2.562081         1.119713
 H         1.298798         1.599114         2.516288
