19
Iteration:  4116charge 0 multiplicity 1
 O        -2.781602         3.769001         1.412206
 C        -1.890480         2.744366         1.674623
 C        -1.438574         1.858716         0.448687
 C        -0.576898         0.946866         1.296451
 O        -0.076780        -0.072867         0.472460
 C        -1.585624         0.517522         2.357466
 C        -1.795762         1.896200         2.944988
 C        -0.729518         2.830631         2.681022
 C         0.366890         1.903378         2.060504
 H        -3.633199         3.467417         1.776639
 H        -2.330077         1.316503         0.136233
 H        -0.978659         2.262099        -0.467954
 H         0.673622        -0.477122         0.841466
 H        -2.503741         0.150588         1.879445
 H        -1.154991        -0.279885         3.055493
 H        -2.504703         2.132525         3.666592
 H        -0.350535         3.586990         3.379752
 H         0.959171         2.321671         1.230591
 H         1.028938         1.414272         2.886169
