19
Iteration:  3966
 O        -2.833201         3.802653         1.509966
 C        -1.851763         2.771211         1.598529
 C        -1.405458         1.894911         0.411494
 C        -0.524148         0.957452         1.300770
 O         0.022183        -0.114754         0.516014
 C        -1.560727         0.480627         2.334778
 C        -1.938280         1.884475         2.753616
 C        -0.717396         2.769615         2.711811
 C         0.346947         1.945256         2.099308
 H        -3.356759         3.806236         2.330706
 H        -2.322563         1.341268         0.066468
 H        -0.873029         2.221890        -0.479637
 H        -0.256097        -0.874925         0.956670
 H        -2.421979        -0.054746         1.848653
 H        -1.122730        -0.247360         3.160660
 H        -2.690038         1.865431         3.496126
 H        -0.592597         3.637032         3.381199
 H         1.021745         2.734824         1.594479
 H         1.078323         1.526183         2.805929
