19
Iteration:  4371charge 0 multiplicity 1
 O        -2.825570         3.777107         1.391786
 C        -1.912687         2.723023         1.616028
 C        -1.398997         1.949112         0.495735
 C        -0.550731         0.991392         1.273463
 O        -0.245061        -0.123008         0.445178
 C        -1.375828         0.530865         2.557354
 C        -1.830348         1.858037         2.964856
 C        -0.701705         2.793454         2.690358
 C         0.386914         1.924696         1.929925
 H        -3.681563         3.348734         1.257740
 H        -2.157210         1.395075        -0.078244
 H        -0.826523         2.557363        -0.188164
 H         0.250499        -0.924187         0.888266
 H        -2.168679        -0.262451         2.439932
 H        -0.786094         0.196027         3.394942
 H        -2.584520         1.979517         3.705835
 H        -0.671032         3.644103         3.377436
 H         0.903885         2.329766         1.016052
 H         1.119534         1.429674         2.565451
