19
Iteration:  4244
 O        -2.823150         3.732837         1.368954
 C        -1.809661         2.756662         1.699076
 C        -1.486592         1.946229         0.470482
 C        -0.594273         0.915978         1.275691
 O        -0.196693        -0.220814         0.548628
 C        -1.417713         0.515758         2.512473
 C        -1.964960         1.868553         2.840677
 C        -0.646375         2.843462         2.625890
 C         0.400820         1.961309         1.997950
 H        -3.392695         3.703191         2.175215
 H        -2.413429         1.473238         0.113284
 H        -0.831437         2.605912        -0.203732
 H         0.353141         0.050525        -0.260240
 H        -1.931435        -0.393039         2.102972
 H        -0.558704         0.328005         3.180217
 H        -2.609511         2.019299         3.658617
 H        -0.487712         3.687182         3.290001
 H         1.173597         2.556608         1.487034
 H         0.903430         1.472581         2.813117
