19
Iteration:  1612
 O        -2.722232         3.912947         1.669455
 C        -1.880139         2.785775         1.639995
 C        -1.473754         2.055082         0.296239
 C        -0.616912         0.876042         1.227293
 O         0.253167        -0.058846         0.784505
 C        -1.645135         0.438188         2.238772
 C        -2.037690         1.702680         2.741189
 C        -0.784329         2.643567         2.615733
 C         0.251779         1.886088         1.996565
 H        -2.056005         4.551404         1.958547
 H        -2.368005         1.709991        -0.274288
 H        -0.725087         2.658407        -0.289394
 H        -0.270486        -0.892370         0.654118
 H        -2.509075        -0.094992         1.763573
 H        -1.175884        -0.166033         3.039271
 H        -2.767112         1.983885         3.470376
 H        -0.536356         3.512415         3.171351
 H         1.024378         2.420392         1.400666
 H         0.799274         1.401534         2.889654
