19
Iteration:    84
 O        -2.602920         3.939684         1.683598
 C        -1.971687         2.682865         1.664650
 C        -1.526867         1.905364         0.372400
 C        -0.549340         0.993409         1.172967
 O         0.298642         0.001520         0.528069
 C        -1.625772         0.428939         2.277078
 C        -2.051437         1.792464         2.913328
 C        -0.856805         2.633789         2.657512
 C         0.262982         1.919138         2.079117
 H        -3.321616         4.019599         1.027814
 H        -2.276378         1.359932        -0.266641
 H        -0.874505         2.476401        -0.332169
 H         0.122193        -0.879069         0.987062
 H        -2.508593         0.045138         1.684303
 H        -0.984846        -0.289669         2.795232
 H        -2.805320         1.912689         3.670032
 H        -0.709076         3.561943         3.209058
 H         0.976302         2.602288         1.493070
 H         0.763564         1.267583         2.818912
