19
Iteration:  2880
 O        -2.683378         3.935038         1.543614
 C        -1.928466         2.780389         1.622001
 C        -1.408569         2.022268         0.391046
 C        -0.602400         0.923908         1.193091
 O         0.131960        -0.090395         0.556228
 C        -1.529555         0.451951         2.317338
 C        -2.040656         1.736053         2.871019
 C        -0.833102         2.711359         2.681339
 C         0.280298         1.806684         2.100975
 H        -3.628157         3.836498         1.252299
 H        -2.251187         1.766000        -0.382462
 H        -0.732413         2.634105        -0.280287
 H         0.670841        -0.425040         1.248552
 H        -2.375930        -0.140548         1.905497
 H        -1.000526        -0.063964         3.185785
 H        -2.791740         1.738646         3.638499
 H        -0.525395         3.620065         3.273544
 H         1.096260         2.382963         1.595211
 H         0.786728         1.347558         2.951322
