19
Iteration:  2704
 O        -2.717145         3.776725         1.470682
 C        -1.819346         2.757894         1.621130
 C        -1.377927         1.916242         0.457629
 C        -0.541477         0.932513         1.260558
 O         0.073160        -0.008117         0.394801
 C        -1.728096         0.494520         2.379697
 C        -1.986037         1.889171         2.824568
 C        -0.739299         2.755616         2.721421
 C         0.304370         1.848301         2.167845
 H        -3.540865         3.299277         1.755259
 H        -2.219368         1.509534        -0.095372
 H        -0.784356         2.479033        -0.126531
 H         0.894199        -0.347045         0.827757
 H        -2.610643         0.071318         1.882278
 H        -1.539414        -0.281637         3.141699
 H        -2.837745         1.998187         3.525918
 H        -0.615543         3.598941         3.380339
 H         1.179079         2.337635         1.688318
 H         0.711467         1.311783         3.077379
