19
Iteration:  1681charge 0 multiplicity 1
 O        -2.726517         3.749171         1.354431
 C        -1.864300         2.730746         1.683700
 C        -1.295833         2.035076         0.490593
 C        -0.584681         0.989539         1.249979
 O         0.042855         0.032473         0.437822
 C        -1.622324         0.478311         2.423327
 C        -2.100889         1.810109         2.898461
 C        -0.739696         2.605812         2.827558
 C         0.315237         1.828488         2.151015
 H        -2.555891         3.912336         0.428832
 H        -2.082182         1.853840        -0.221284
 H        -0.560022         2.806169         0.055542
 H        -0.376081        -0.156661        -0.335151
 H        -2.497074        -0.068018         2.098917
 H        -1.051789        -0.072186         3.107938
 H        -2.899783         1.856829         3.666365
 H        -0.491787         3.455618         3.525927
 H         0.991179         2.371529         1.538258
 H         0.845776         1.195014         2.877184
