19
Iteration:  4930
 O        -2.904823         3.678181         1.631945
 C        -1.864840         2.747287         1.624455
 C        -1.515960         1.884185         0.414953
 C        -0.584712         0.902699         1.246014
 O         0.105559        -0.073429         0.467419
 C        -1.651883         0.528858         2.437055
 C        -1.922850         1.970451         2.842659
 C        -0.668974         2.846090         2.554218
 C         0.405305         1.860616         2.082597
 H        -2.526825         4.488180         1.221361
 H        -2.329130         1.308260         0.016600
 H        -0.831706         2.238779        -0.356481
 H         0.517388        -0.853441         1.021955
 H        -2.566728         0.131966         1.869083
 H        -1.323628        -0.130913         3.190279
 H        -2.559931         2.302321         3.615653
 H        -0.220591         3.640196         3.102517
 H         1.166015         2.335191         1.432837
 H         0.777019         1.378530         2.982152
