19
Iteration:  4291
 O        -2.700753         3.842805         1.562310
 C        -1.932332         2.733129         1.705948
 C        -1.604414         1.866988         0.466764
 C        -0.639067         0.891042         1.246147
 O         0.057330        -0.129518         0.524163
 C        -1.530375         0.381710         2.513403
 C        -1.887294         1.936080         2.942601
 C        -0.697569         2.862675         2.497669
 C         0.299838         1.946963         1.885984
 H        -3.300859         3.800319         0.832164
 H        -2.437032         1.262371         0.146129
 H        -0.961300         2.286365        -0.305381
 H         1.030641        -0.197523         0.846330
 H        -2.496515        -0.013923         2.292678
 H        -0.904839        -0.234782         3.232701
 H        -2.541689         2.187208         3.847314
 H        -0.404530         3.685221         3.158671
 H         0.816486         2.323718         1.051882
 H         1.059669         1.466284         2.524066
