19
Iteration:  1049
 O        -2.502099         3.887351         1.392790
 C        -1.897520         2.712549         1.671583
 C        -1.478544         1.969299         0.473455
 C        -0.557466         0.952980         1.257119
 O         0.091572         0.018961         0.473555
 C        -1.634025         0.370727         2.305865
 C        -2.139388         1.709549         2.833030
 C        -0.826838         2.748811         2.815827
 C         0.329710         1.880844         2.213796
 H        -3.506526         3.852900         1.363812
 H        -2.431722         1.527758         0.005360
 H        -0.948567         2.574758        -0.239417
 H         0.747984         0.385989        -0.208501
 H        -2.233999        -0.352961         1.746601
 H        -1.115793        -0.257710         3.089768
 H        -2.981262         1.933692         3.551561
 H        -0.852484         3.591076         3.520657
 H         1.209377         2.411171         1.818944
 H         0.812619         1.097569         2.752238
