19
Iteration:  2822
 O        -2.719316         3.850472         1.421085
 C        -1.923793         2.774865         1.597713
 C        -1.397526         1.944873         0.397470
 C        -0.558551         0.961472         1.230863
 O         0.071375         0.008577         0.434254
 C        -1.622318         0.428048         2.353577
 C        -1.944522         1.834242         2.929934
 C        -0.793677         2.699192         2.766583
 C         0.326248         1.826955         2.190456
 H        -3.647371         3.698835         1.266033
 H        -2.226315         1.439868        -0.215836
 H        -0.645832         2.698027        -0.174468
 H         0.510150        -0.633418         1.120642
 H        -2.463893        -0.150410         1.883079
 H        -1.202614        -0.314704         2.999202
 H        -2.633857         2.141272         3.762331
 H        -0.494819         3.486434         3.436945
 H         1.062220         2.325310         1.679165
 H         0.755668         1.335071         3.058841
