19
Iteration:  1841charge 0 multiplicity 1
 O        -2.828188         3.961055         1.432815
 C        -1.931359         2.761368         1.665932
 C        -1.412136         1.999426         0.471295
 C        -0.534214         0.938731         1.264213
 O         0.170538        -0.106687         0.584919
 C        -1.590772         0.369509         2.289897
 C        -2.017755         1.862791         2.785810
 C        -0.760912         2.742627         2.674847
 C         0.378963         1.793052         2.130706
 H        -3.445478         3.881871         2.172109
 H        -2.180503         1.501590        -0.219310
 H        -0.688032         2.605842        -0.099748
 H        -0.383122        -0.560580         0.035975
 H        -2.509455        -0.161063         1.858935
 H        -1.014336        -0.227294         3.055284
 H        -2.424278         1.765582         3.784767
 H        -0.751698         3.624417         3.331184
 H         1.114507         2.389362         1.515467
 H         0.902266         1.306398         2.994834
