19
Iteration:  3955
 O        -2.841246         3.807533         1.481079
 C        -1.821665         2.901346         1.613347
 C        -1.426019         1.959437         0.507546
 C        -0.554962         0.930725         1.254605
 O         0.035209        -0.186802         0.559744
 C        -1.485384         0.432235         2.309405
 C        -1.985602         1.794844         2.778575
 C        -0.808413         2.748421         2.677082
 C         0.393926         2.022229         2.049404
 H        -3.154262         3.933871         2.368961
 H        -2.308915         1.450048         0.024032
 H        -0.808731         2.493589        -0.220488
 H        -0.190809        -1.062879         1.037737
 H        -2.284132        -0.155930         1.773095
 H        -1.031719        -0.187154         3.217225
 H        -2.745687         2.158017         3.438519
 H        -0.581042         3.412997         3.529059
 H         1.016834         2.616644         1.267845
 H         0.918052         1.341735         2.732055
