19
Iteration:  1817
 O        -2.726951         3.773588         1.334276
 C        -1.846219         2.741325         1.657151
 C        -1.339000         1.972019         0.496459
 C        -0.562702         0.928752         1.301830
 O         0.101088         0.120467         0.376388
 C        -1.656511         0.421890         2.432887
 C        -1.982044         1.826651         2.856460
 C        -0.781335         2.728601         2.688582
 C         0.267692         1.774606         2.205181
 H        -3.083378         4.259742         2.120978
 H        -2.305528         1.551226         0.035786
 H        -0.690014         2.412504        -0.241438
 H        -0.202505        -0.838423         0.372647
 H        -2.497341        -0.125589         2.079825
 H        -1.118624        -0.083769         3.282429
 H        -2.892767         1.900332         3.470636
 H        -0.427328         3.500594         3.432907
 H         0.861638         2.463834         1.564128
 H         0.851654         1.333444         2.945486
