19
Iteration:  2930charge 0 multiplicity 1
 O        -2.652491         3.975274         1.412787
 C        -1.884504         2.774680         1.680063
 C        -1.384968         1.798203         0.557561
 C        -0.520200         0.869970         1.306658
 O         0.094537         0.042613         0.305726
 C        -1.613745         0.375594         2.359396
 C        -2.082898         1.873295         2.826735
 C        -0.828047         2.682544         2.846787
 C         0.298365         1.891476         2.154201
 H        -3.509713         3.821241         1.029383
 H        -2.089361         1.255607         0.031026
 H        -0.929721         2.274500        -0.339423
 H         0.674986        -0.669153         0.676164
 H        -2.316420        -0.226754         1.734968
 H        -1.266678        -0.239647         3.221115
 H        -2.889119         2.101963         3.507491
 H        -0.870614         3.467252         3.600301
 H         0.870890         2.588807         1.504901
 H         1.124429         1.560674         2.866471
