19
Iteration:    87charge 0 multiplicity 1
 O        -2.585810         3.964937         1.695115
 C        -1.988809         2.683139         1.668505
 C        -1.545097         1.883418         0.365280
 C        -0.580715         0.971785         1.179199
 O         0.301209         0.009865         0.532969
 C        -1.606513         0.400719         2.246692
 C        -2.069835         1.766702         2.883178
 C        -0.821366         2.671982         2.663862
 C         0.268694         1.920881         2.088566
 H        -3.308441         4.079654         1.017235
 H        -2.270089         1.367688        -0.267782
 H        -0.918791         2.447214        -0.299357
 H         0.192081        -0.811011         1.085970
 H        -2.506540        -0.010002         1.725449
 H        -0.980923        -0.267330         2.818436
 H        -2.765117         1.861025         3.728825
 H        -0.766764         3.645337         3.119249
 H         0.970339         2.580276         1.542391
 H         0.718148         1.333966         2.853403
