19
Iteration:  2048
 O        -2.630023         3.878436         1.381876
 C        -1.999273         2.739692         1.663752
 C        -1.451209         1.941585         0.523716
 C        -0.513773         0.921523         1.321512
 O         0.092314        -0.018597         0.465619
 C        -1.531828         0.375043         2.390587
 C        -2.008907         1.740410         2.921372
 C        -0.843509         2.752456         2.732613
 C         0.338294         1.946415         2.082520
 H        -3.454855         3.720135         0.823655
 H        -2.196332         1.350546        -0.190383
 H        -0.760971         2.605835        -0.101512
 H        -0.326165         0.119273        -0.427921
 H        -2.413602        -0.113851         1.967631
 H        -1.065948        -0.223154         3.203941
 H        -2.522698         1.832769         3.901362
 H        -0.683101         3.569049         3.464098
 H         1.069584         2.484485         1.427949
 H         0.762399         1.294537         2.852127
