19
Iteration:  4561
 O        -2.755637         3.800351         1.567013
 C        -1.935017         2.707013         1.638838
 C        -1.492910         1.799467         0.439319
 C        -0.593248         0.883862         1.279296
 O        -0.095807        -0.147045         0.575136
 C        -1.453085         0.491607         2.382213
 C        -1.850863         1.830017         2.955332
 C        -0.768203         2.816765         2.575780
 C         0.328603         2.133051         1.892798
 H        -2.277425         4.668360         1.613277
 H        -2.238829         1.150996        -0.057888
 H        -0.817304         2.369448        -0.305635
 H         0.445518        -0.703757         1.050192
 H        -2.235757        -0.193426         2.003289
 H        -0.885250        -0.122506         3.102539
 H        -2.711483         1.757135         3.565215
 H        -0.704331         3.777073         3.120302
 H         0.974375         2.669718         1.122107
 H         0.913645         1.629593         2.660692
