19
Iteration:  1489charge 0 multiplicity 1
 O        -2.743356         3.910280         1.683270
 C        -1.895780         2.760031         1.593125
 C        -1.397089         1.970861         0.381110
 C        -0.546614         0.969797         1.198932
 O         0.133262        -0.095994         0.746219
 C        -1.619918         0.368012         2.203077
 C        -1.947624         1.731125         2.796997
 C        -0.848857         2.748174         2.628154
 C         0.292720         1.906369         2.065847
 H        -2.106432         4.627220         1.483979
 H        -2.297267         1.530336        -0.218218
 H        -0.928172         2.471408        -0.465927
 H        -0.551679        -0.685485         0.232251
 H        -2.365114        -0.094619         1.543157
 H        -1.086165        -0.327751         2.940904
 H        -2.694151         2.034674         3.506455
 H        -0.834309         3.504149         3.458650
 H         1.116909         2.401351         1.373516
 H         0.743129         1.457596         2.989419
