19
Iteration:  1289charge 0 multiplicity 1
 O        -2.635558         3.830790         1.353949
 C        -1.920332         2.741749         1.708986
 C        -1.365143         1.950400         0.490817
 C        -0.551683         0.964554         1.278975
 O         0.031686         0.005155         0.269323
 C        -1.601355         0.432317         2.379438
 C        -2.119222         1.847690         2.930075
 C        -0.797499         2.657025         2.807472
 C         0.344302         1.856155         2.201769
 H        -3.348764         3.992651         2.024026
 H        -2.129136         1.291129        -0.018320
 H        -0.682003         2.391591        -0.214309
 H         0.927916        -0.301736         0.479282
 H        -2.455677        -0.059340         1.927715
 H        -1.263992        -0.289475         3.164595
 H        -2.855795         2.077107         3.716947
 H        -0.693978         3.733031         3.087469
 H         0.960460         2.424661         1.426002
 H         1.008176         1.368815         2.962742
