19
Iteration:  4313
 O        -2.797983         3.940624         1.613229
 C        -1.821089         2.794925         1.642505
 C        -1.746628         1.722639         0.457143
 C        -0.667432         0.895609         1.220423
 O         0.197411        -0.052333         0.553804
 C        -1.543069         0.515872         2.490070
 C        -1.907248         1.918477         2.912439
 C        -0.631258         2.671559         2.536951
 C         0.322063         1.876189         1.866701
 H        -3.347749         3.994285         0.777494
 H        -2.629386         1.177029         0.161696
 H        -1.202516         2.282075        -0.282410
 H         0.696257        -0.325738         1.287861
 H        -2.397344        -0.061365         2.215149
 H        -0.985065         0.153920         3.419899
 H        -2.583179         2.089105         3.815905
 H        -0.216094         3.560626         3.011350
 H         0.837233         2.268132         1.074273
 H         1.048769         1.310340         2.442881
