19
Iteration:  4684charge 0 multiplicity 1
 O        -2.764898         3.736039         1.481005
 C        -1.899554         2.708908         1.661449
 C        -1.512945         1.944416         0.402917
 C        -0.598422         0.940639         1.239250
 O        -0.078692        -0.146607         0.560438
 C        -1.373248         0.494651         2.418569
 C        -1.971517         1.864830         2.839265
 C        -0.753166         2.814789         2.619992
 C         0.311150         1.970920         1.969359
 H        -2.574981         4.377525         2.194958
 H        -2.444301         1.388804         0.028709
 H        -1.057817         2.629709        -0.366455
 H         0.347476        -0.627938         1.283591
 H        -1.896360        -0.419721         2.306887
 H        -0.549295         0.227710         3.162276
 H        -2.569345         2.007175         3.746985
 H        -0.480795         3.676729         3.220490
 H         1.018264         2.494014         1.356731
 H         0.938625         1.340588         2.690700
