19
Iteration:   818
 O        -2.754944         4.088321         1.589178
 C        -1.915969         2.833473         1.649557
 C        -1.355201         2.027576         0.412277
 C        -0.483789         0.956521         1.270018
 O         0.187894        -0.125313         0.573859
 C        -1.680822         0.342737         2.165530
 C        -2.098834         1.676179         2.722278
 C        -0.896675         2.573153         2.833421
 C         0.372084         1.835294         2.180499
 H        -2.908221         4.325663         0.643110
 H        -2.166956         1.509768        -0.111778
 H        -0.869080         2.686229        -0.278587
 H         1.021414         0.393786         0.234599
 H        -2.499530        -0.309663         1.713032
 H        -1.210710        -0.332148         2.923970
 H        -2.998994         1.879174         3.341199
 H        -0.776225         3.326609         3.613219
 H         1.198761         2.426787         1.642527
 H         0.667491         1.147600         2.987054
