19
Iteration:  4679charge 0 multiplicity 1
 O        -2.807918         3.731292         1.488039
 C        -1.864046         2.736528         1.645422
 C        -1.493893         1.965088         0.370047
 C        -0.656263         0.943686         1.234081
 O        -0.092617        -0.165741         0.571569
 C        -1.334042         0.470693         2.452435
 C        -1.956538         1.876596         2.846526
 C        -0.714243         2.771047         2.612750
 C         0.335257         1.990650         1.974599
 H        -2.666425         4.366671         2.188846
 H        -2.449072         1.618837         0.060359
 H        -0.961977         2.562208        -0.351292
 H         0.397742        -0.596239         1.313451
 H        -1.945786        -0.496994         2.237168
 H        -0.577643         0.188068         3.165680
 H        -2.696605         2.041563         3.640398
 H        -0.749502         3.694915         3.255402
 H         1.093337         2.588083         1.378052
 H         0.833664         1.326160         2.626507
