19
Iteration:  4809
 O        -2.938251         3.677008         1.611506
 C        -1.897181         2.745675         1.674540
 C        -1.434348         1.902153         0.407795
 C        -0.566934         0.947976         1.228420
 O         0.011278        -0.124326         0.562041
 C        -1.622177         0.562248         2.396699
 C        -1.854375         1.940740         2.908448
 C        -0.677793         2.740177         2.635572
 C         0.435863         1.925496         1.912415
 H        -2.794794         4.184203         0.815422
 H        -2.310295         1.506063        -0.062693
 H        -0.796780         2.346333        -0.356717
 H         0.781703        -0.310024         1.037037
 H        -2.639409         0.174394         2.112324
 H        -1.106041        -0.108327         3.036588
 H        -2.714209         2.139378         3.624307
 H        -0.643185         3.608607         3.303597
 H         1.089062         2.477449         1.169286
 H         1.035070         1.358214         2.692832
