19
Iteration:   866
 O        -2.818896         3.852369         1.638335
 C        -1.919641         2.769477         1.637294
 C        -1.246261         2.094403         0.318391
 C        -0.505217         0.995516         1.266042
 O         0.084894        -0.075613         0.610450
 C        -1.670798         0.422787         2.176108
 C        -2.072096         1.740949         2.755952
 C        -0.833225         2.646398         2.709587
 C         0.301958         1.780159         2.233244
 H        -2.458665         4.450768         0.961194
 H        -1.902704         1.675629        -0.487020
 H        -0.393514         2.703553        -0.172414
 H         0.982736         0.138400         0.381199
 H        -2.414241         0.055373         1.489509
 H        -1.557614        -0.383089         2.936072
 H        -2.710950         1.966177         3.599854
 H        -0.614153         3.276637         3.572425
 H         1.003293         2.450734         1.655060
 H         0.816306         1.236185         3.043400
