19
Iteration:  3090charge 0 multiplicity 1
 O        -2.679548         3.827082         1.541897
 C        -1.816519         2.787521         1.682804
 C        -1.414609         1.957865         0.465383
 C        -0.557828         0.930933         1.266284
 O         0.133682        -0.028837         0.529457
 C        -1.703861         0.484143         2.240534
 C        -2.095457         1.768650         2.795470
 C        -0.766754         2.698080         2.764067
 C         0.314185         1.880615         2.087398
 H        -3.336469         3.613890         0.881307
 H        -2.278874         1.646292        -0.228830
 H        -0.824871         2.619528        -0.142260
 H         0.807806        -0.506749         1.044728
 H        -2.530698        -0.049401         1.833265
 H        -1.305215        -0.151138         2.966353
 H        -2.938274         1.930303         3.469390
 H        -0.764149         3.578036         3.421022
 H         1.005626         2.437986         1.423121
 H         1.067998         1.417978         2.680998
