19
Iteration:  3354
 O        -2.727417         3.954325         1.557762
 C        -1.956941         2.719929         1.698081
 C        -1.469142         2.000310         0.403445
 C        -0.523768         1.008147         1.219226
 O         0.057962        -0.174595         0.734240
 C        -1.506253         0.403698         2.144028
 C        -2.054626         1.724105         2.792192
 C        -0.754928         2.706310         2.696738
 C         0.340629         1.953885         2.145024
 H        -3.202287         3.849438         0.732034
 H        -2.377963         1.588425        -0.061600
 H        -1.021603         2.748888        -0.140643
 H         0.504047        -0.070787        -0.188897
 H        -2.256413        -0.230632         1.596566
 H        -0.879677        -0.098913         2.866600
 H        -2.583198         1.597094         3.736635
 H        -0.597372         3.623673         3.305903
 H         1.100500         2.456770         1.571994
 H         0.798570         1.264471         2.849497
