19
Iteration:  3437charge 0 multiplicity 1
 O        -2.840033         3.868532         1.401037
 C        -1.916017         2.795668         1.687621
 C        -1.424014         1.948126         0.543663
 C        -0.502105         0.973335         1.235330
 O         0.062923        -0.163072         0.479959
 C        -1.572681         0.411667         2.252643
 C        -1.988171         1.790104         2.828870
 C        -0.788202         2.744934         2.726568
 C         0.360802         1.928492         2.160729
 H        -2.732570         4.598470         2.065191
 H        -2.311780         1.514287         0.082763
 H        -1.002129         2.548926        -0.360006
 H         0.899195        -0.333632         0.796149
 H        -2.360088        -0.267099         1.985371
 H        -0.929479        -0.229794         2.898812
 H        -2.920877         1.946035         3.422028
 H        -0.687940         3.479021         3.556116
 H         1.154003         2.512381         1.482090
 H         0.957367         1.233816         2.851581
