19
Iteration:  1654
 O        -2.789654         3.864863         1.460719
 C        -1.792893         2.847954         1.618518
 C        -1.377039         1.930257         0.513744
 C        -0.566961         0.898097         1.337876
 O         0.094218         0.023153         0.438951
 C        -1.595942         0.389285         2.337207
 C        -2.066027         1.800353         2.796477
 C        -0.802433         2.683980         2.716866
 C         0.350610         1.832936         2.210844
 H        -2.436123         4.623899         0.981959
 H        -2.288369         1.604281        -0.054450
 H        -0.671606         2.364233        -0.180178
 H        -0.450994        -0.591869         0.035776
 H        -2.447899        -0.087351         1.783479
 H        -1.142649        -0.270723         3.174797
 H        -2.806397         1.847502         3.580130
 H        -0.659992         3.399775         3.473676
 H         1.026363         2.421383         1.509595
 H         0.888812         1.289503         3.033677
