19
Iteration:  4349charge 0 multiplicity 1
 O        -2.710793         3.814037         1.558235
 C        -1.950926         2.726545         1.655729
 C        -1.552060         1.845604         0.509995
 C        -0.553961         0.929447         1.274070
 O        -0.141210        -0.168982         0.452606
 C        -1.406906         0.460064         2.503441
 C        -1.916495         1.855329         2.940911
 C        -0.722454         2.837103         2.487107
 C         0.409370         2.057990         1.982855
 H        -3.213386         3.647388         0.719907
 H        -2.277875         1.338175        -0.144540
 H        -0.870548         2.359556        -0.144542
 H         0.237936        -0.865202         0.959001
 H        -2.346506        -0.092001         2.256699
 H        -0.894683        -0.173531         3.222740
 H        -2.506799         1.954115         3.800861
 H        -0.561011         3.819070         2.936013
 H         0.966696         2.763098         1.280266
 H         1.088684         1.783555         2.801590
