19
Iteration:  2876
 O        -2.713052         3.947596         1.558545
 C        -1.937314         2.820391         1.608590
 C        -1.372745         2.025985         0.382295
 C        -0.575083         0.901612         1.162618
 O         0.113118        -0.108188         0.556269
 C        -1.552007         0.454181         2.342753
 C        -2.032538         1.738549         2.868555
 C        -0.825338         2.681132         2.683874
 C         0.316114         1.820540         2.100764
 H        -3.611221         3.738764         1.309158
 H        -2.252982         1.734025        -0.229850
 H        -0.656831         2.637616        -0.312518
 H         0.728610        -0.476456         1.265154
 H        -2.335173        -0.140465         1.879910
 H        -1.114646        -0.012946         3.161381
 H        -2.840719         1.699766         3.614948
 H        -0.679507         3.603575         3.222244
 H         0.968225         2.457291         1.572773
 H         0.817353         1.421681         2.993134
