19
Iteration:  1591
 O        -2.768342         3.933412         1.631093
 C        -1.871723         2.825175         1.635563
 C        -1.411831         1.962613         0.435692
 C        -0.614773         0.879030         1.227875
 O         0.249898        -0.153328         0.662969
 C        -1.631681         0.398676         2.248804
 C        -2.125239         1.819834         2.743367
 C        -0.785917         2.687847         2.749176
 C         0.341213         1.907159         2.020656
 H        -2.279221         4.749519         1.409774
 H        -2.247332         1.505253        -0.117311
 H        -0.649094         2.505781        -0.208463
 H        -0.353359        -0.628048         0.138133
 H        -2.483063        -0.159415         1.816418
 H        -1.106095        -0.242889         2.883595
 H        -2.857275         2.070337         3.509183
 H        -0.860212         3.392787         3.547452
 H         0.742516         2.488233         1.203816
 H         1.265083         1.470817         2.500869
