19
Iteration:  1080charge 0 multiplicity 1
 O        -2.688958         4.100653         1.641710
 C        -2.013433         2.769538         1.562790
 C        -1.419525         1.941532         0.389954
 C        -0.536675         0.841999         1.314103
 O         0.192442        -0.071879         0.584151
 C        -1.665909         0.384861         2.223454
 C        -2.050723         1.766865         2.795573
 C        -0.804320         2.668852         2.704997
 C         0.341204         1.826966         2.094681
 H        -3.628505         4.007818         1.546126
 H        -2.119755         1.340385        -0.333461
 H        -0.623915         2.443758        -0.242754
 H         1.120115         0.108740         0.573980
 H        -2.401380        -0.197224         1.629172
 H        -1.335863        -0.265711         3.030611
 H        -2.743203         1.940079         3.675306
 H        -0.734923         3.497491         3.429203
 H         0.891821         2.474108         1.431791
 H         0.988487         1.188566         2.735080
