19
Iteration:   134charge 0 multiplicity 1
 O        -2.643742         3.913182         1.485392
 C        -1.899881         2.708177         1.703145
 C        -1.367330         1.934760         0.428336
 C        -0.527817         0.954289         1.197640
 O         0.101964        -0.047678         0.405296
 C        -1.642736         0.447155         2.301677
 C        -2.083925         1.778083         2.848152
 C        -0.839391         2.662549         2.879000
 C         0.304528         1.882566         2.176664
 H        -3.561476         3.668692         1.461211
 H        -2.145692         1.537531        -0.199527
 H        -0.822104         2.627745        -0.240151
 H         0.872980         0.384215         0.088883
 H        -2.385709        -0.199233         1.909225
 H        -1.061970         0.032999         3.150960
 H        -2.901281         1.714694         3.579757
 H        -0.811950         3.604347         3.514423
 H         0.788618         2.545771         1.513761
 H         1.053769         1.223314         2.665760
