19
Iteration:  2384charge 0 multiplicity 1
 O        -2.697061         3.850401         1.591760
 C        -1.864963         2.701328         1.624242
 C        -1.511935         1.899449         0.407366
 C        -0.545194         0.992190         1.264850
 O         0.018169        -0.129659         0.635558
 C        -1.570148         0.458937         2.298035
 C        -2.008075         1.811654         2.833026
 C        -0.771379         2.795495         2.607034
 C         0.375704         1.919032         2.069759
 H        -3.610049         3.466935         1.381442
 H        -2.395678         1.287081        -0.072687
 H        -0.911381         2.479381        -0.319024
 H         0.930741         0.197065         0.412284
 H        -2.292381        -0.059254         1.723275
 H        -1.141942        -0.152761         3.079520
 H        -2.691448         2.019339         3.651771
 H        -0.661913         3.743406         3.187538
 H         0.990181         2.506577         1.416575
 H         1.072232         1.441772         2.767685
