19
Iteration:  1976charge 0 multiplicity 1
 O        -2.783956         3.931444         1.534665
 C        -1.965159         2.733365         1.656274
 C        -1.409245         2.015221         0.417854
 C        -0.558802         0.938306         1.261196
 O         0.250042        -0.160325         0.570877
 C        -1.592484         0.434626         2.324612
 C        -1.977901         1.804047         2.834390
 C        -0.773366         2.735885         2.648664
 C         0.325586         1.915441         2.064368
 H        -3.610882         3.631578         2.006152
 H        -2.143105         1.674049        -0.270621
 H        -0.831471         2.645018        -0.293147
 H        -0.440132        -0.783191         0.402885
 H        -2.402529        -0.045920         1.659272
 H        -1.267519        -0.224113         3.139593
 H        -2.659082         1.944161         3.713988
 H        -0.769176         3.613955         3.352158
 H         0.992779         2.470112         1.403334
 H         0.778137         1.218479         2.819853
