19
Iteration:  2875charge 0 multiplicity 1
 O        -2.719842         3.952427         1.562565
 C        -1.936861         2.825757         1.607916
 C        -1.363828         2.027962         0.377210
 C        -0.568083         0.899027         1.161389
 O         0.108221        -0.113808         0.553858
 C        -1.561129         0.455102         2.344139
 C        -2.029698         1.743625         2.863791
 C        -0.825192         2.674232         2.683599
 C         0.321584         1.826530         2.102169
 H        -3.619318         3.701110         1.319752
 H        -2.228644         1.715099        -0.174705
 H        -0.664695         2.615752        -0.285508
 H         0.749626        -0.496323         1.271103
 H        -2.330890        -0.152577         1.878915
 H        -1.113260        -0.040300         3.180207
 H        -2.852297         1.706578         3.611947
 H        -0.719987         3.591762         3.217737
 H         0.967392         2.501156         1.538603
 H         0.833583         1.415801         3.002804
