19
Iteration:  4594
 O        -2.748453         3.893348         1.404647
 C        -1.946917         2.771752         1.665355
 C        -1.629281         1.817206         0.582651
 C        -0.580861         0.874661         1.298893
 O         0.048951        -0.063005         0.415881
 C        -1.389333         0.429315         2.555079
 C        -2.028966         1.869368         2.912029
 C        -0.750758         2.751284         2.593664
 C         0.360972         1.933091         1.874614
 H        -2.388573         4.715366         1.838848
 H        -2.496001         1.268809         0.106639
 H        -1.155401         2.423885        -0.286519
 H         0.580271        -0.796793         0.882562
 H        -2.114327        -0.438364         2.440568
 H        -0.755430         0.245679         3.446825
 H        -2.779523         1.711525         3.689640
 H        -0.516040         3.604765         3.269441
 H         1.035051         2.506816         1.144450
 H         1.029542         1.513964         2.649083
