19
Iteration:  4021
 O        -2.740772         3.933484         1.442517
 C        -1.891372         2.792754         1.652569
 C        -1.528333         1.869959         0.491762
 C        -0.615215         0.924231         1.308301
 O         0.083358        -0.030634         0.447617
 C        -1.505755         0.365618         2.433141
 C        -2.001436         1.835404         2.930353
 C        -0.777623         2.731530         2.716831
 C         0.385615         1.916108         1.993752
 H        -2.995226         3.858417         0.477375
 H        -2.417419         1.302111         0.092614
 H        -0.912907         2.234448        -0.321096
 H         0.443504        -0.654909         1.061268
 H        -2.315560        -0.274620         2.043940
 H        -0.776933        -0.215211         3.062527
 H        -2.764570         1.901477         3.667123
 H        -0.753156         3.561334         3.433330
 H         0.898706         2.657961         1.353812
 H         0.995327         1.365678         2.676415
