19
Iteration:  2187charge 0 multiplicity 1
 O        -2.633943         3.872276         1.421681
 C        -1.946041         2.583794         1.651981
 C        -1.418314         1.946726         0.422414
 C        -0.582971         0.933315         1.247384
 O         0.098439         0.056323         0.414173
 C        -1.562341         0.403490         2.527905
 C        -1.967676         1.764097         2.937741
 C        -0.825521         2.787941         2.697060
 C         0.315421         1.927452         2.141991
 H        -3.554347         3.709695         1.113431
 H        -2.189788         1.386784        -0.200767
 H        -0.763625         2.498186        -0.192470
 H        -0.435224        -0.422900        -0.134370
 H        -2.444929        -0.101669         2.154542
 H        -1.037462        -0.302212         3.234052
 H        -2.779223         2.080242         3.671253
 H        -0.627704         3.737294         3.227117
 H         1.056552         2.492671         1.532896
 H         0.877853         1.307897         2.814396
