19
Iteration:  2612charge 0 multiplicity 1
 O        -2.672497         4.037303         1.584054
 C        -1.966067         2.794803         1.648991
 C        -1.450411         1.806593         0.432356
 C        -0.559057         0.889597         1.295980
 O         0.177791        -0.026563         0.546622
 C        -1.627203         0.380689         2.175875
 C        -1.980933         1.769961         2.873793
 C        -0.810389         2.765297         2.592960
 C         0.340860         1.909012         2.136203
 H        -3.566340         3.780849         1.311193
 H        -2.096210         1.082091        -0.017528
 H        -0.875469         2.417831        -0.277965
 H        -0.155850        -0.836819         0.882690
 H        -2.562291        -0.098508         1.848603
 H        -1.239699        -0.333543         2.849012
 H        -2.489891         1.955846         3.797325
 H        -0.722363         3.605218         3.261902
 H         1.060588         2.339640         1.507248
 H         0.885564         1.537282         2.982123
