19
Iteration:  4683charge 0 multiplicity 1
 O        -2.771543         3.732506         1.481694
 C        -1.892615         2.712507         1.660792
 C        -1.508054         1.949845         0.394592
 C        -0.609814         0.938168         1.241565
 O        -0.083470        -0.148680         0.560960
 C        -1.364577         0.490774         2.421125
 C        -1.969644         1.870979         2.837663
 C        -0.745840         2.805698         2.618157
 C         0.313524         1.975328         1.971300
 H        -2.583294         4.382109         2.208194
 H        -2.460484         1.423979         0.040455
 H        -1.038688         2.632724        -0.372624
 H         0.369930        -0.631138         1.326786
 H        -1.893115        -0.448278         2.295995
 H        -0.540619         0.221389         3.164830
 H        -2.599756         2.013765         3.746537
 H        -0.529273         3.689884         3.232985
 H         1.036779         2.509834         1.365462
 H         0.904864         1.339862         2.663838
