19
Iteration:  3985charge 0 multiplicity 1
 O        -2.752679         3.796923         1.480326
 C        -1.928657         2.725593         1.619313
 C        -1.448475         1.869322         0.451535
 C        -0.593600         0.959749         1.291629
 O         0.104854        -0.004020         0.451296
 C        -1.591786         0.504580         2.380658
 C        -1.972058         1.907718         2.952126
 C        -0.753089         2.771438         2.569668
 C         0.403973         1.857896         2.118513
 H        -3.631650         3.534386         1.862392
 H        -2.122869         1.250778        -0.133706
 H        -0.888452         2.585799        -0.160189
 H         0.042002        -0.885675         0.703408
 H        -2.457498        -0.023472         2.021176
 H        -1.242258        -0.213810         3.094374
 H        -2.740019         2.240097         3.698058
 H        -0.616614         3.720731         3.091644
 H         1.321928         2.161778         1.568721
 H         0.984092         1.196487         2.850046
