19
Iteration:  1330charge 0 multiplicity 1
 O        -2.748940         4.035961         1.501787
 C        -1.914419         2.852247         1.649427
 C        -1.498842         1.985294         0.375189
 C        -0.538820         0.892990         1.284338
 O         0.136979        -0.129476         0.639567
 C        -1.566807         0.355188         2.213243
 C        -2.000350         1.706063         2.842693
 C        -0.872404         2.692945         2.718500
 C         0.287950         1.805921         2.071072
 H        -2.321122         4.679375         2.128892
 H        -2.374864         1.527685         0.121140
 H        -1.014429         2.543556        -0.470058
 H         1.101140         0.265821         0.481816
 H        -2.228099        -0.334290         1.593671
 H        -1.059186        -0.276188         2.949102
 H        -2.577373         1.650571         3.741982
 H        -0.669093         3.662093         3.256275
 H         0.850156         2.471928         1.456472
 H         0.993802         1.215720         2.736034
