19
Iteration:  4473charge 0 multiplicity 1
 O        -2.771602         3.838115         1.456732
 C        -1.981073         2.745352         1.657429
 C        -1.525137         1.837023         0.486470
 C        -0.561635         0.970367         1.273977
 O        -0.129021        -0.140833         0.474601
 C        -1.365990         0.452432         2.458925
 C        -1.982200         1.823382         2.934326
 C        -0.734316         2.786219         2.695783
 C         0.440822         1.983887         1.966266
 H        -2.513556         4.413518         0.700760
 H        -2.280488         1.117214         0.123106
 H        -1.129626         2.542893        -0.324273
 H         0.510563        -0.627773         0.929434
 H        -2.087755        -0.322562         2.102899
 H        -0.757564        -0.019108         3.219130
 H        -2.693922         2.036899         3.731705
 H        -0.605995         3.727653         3.221112
 H         0.939183         2.751142         1.258519
 H         1.205257         1.436868         2.568840
