19
Iteration:   689charge 0 multiplicity 1
 O        -2.698145         3.950922         1.501925
 C        -1.916722         2.832642         1.644737
 C        -1.339505         2.073391         0.502578
 C        -0.536357         0.928111         1.349739
 O         0.156669        -0.039128         0.543660
 C        -1.702669         0.315954         2.062546
 C        -2.207311         1.693923         2.656165
 C        -0.793557         2.566051         2.804879
 C         0.333448         1.862619         2.269363
 H        -2.621886         4.722922         2.124509
 H        -2.007252         1.487864        -0.213343
 H        -0.550452         2.574181        -0.195148
 H         0.775765         0.551176         0.123557
 H        -2.308254        -0.224073         1.350725
 H        -1.278295        -0.289249         2.906892
 H        -2.896949         1.655650         3.552688
 H        -0.852751         3.354528         3.557797
 H         1.135809         2.388782         1.682851
 H         0.889189         1.314218         3.009796
