19
Iteration:  1661charge 0 multiplicity 1
 O        -2.764215         3.819569         1.435438
 C        -1.827051         2.862779         1.613362
 C        -1.351979         1.979164         0.499616
 C        -0.611440         0.902288         1.347090
 O         0.075301         0.056535         0.435601
 C        -1.623025         0.347752         2.365235
 C        -2.016087         1.791714         2.791622
 C        -0.817321         2.705195         2.771111
 C         0.369402         1.806412         2.205244
 H        -2.400870         4.462166         0.789378
 H        -2.195381         1.532499        -0.064398
 H        -0.646926         2.455261        -0.187700
 H        -0.569595        -0.498149        -0.046570
 H        -2.342006        -0.309673         1.901110
 H        -1.184587        -0.228813         3.207354
 H        -2.815841         2.053447         3.513047
 H        -0.671276         3.464490         3.559427
 H         1.006017         2.457867         1.581807
 H         1.047604         1.252343         2.803681
