19
Iteration:  1622charge 0 multiplicity 1
 O        -2.713403         3.925295         1.663446
 C        -1.930513         2.713080         1.555344
 C        -1.535457         2.050206         0.294355
 C        -0.610276         0.940773         1.203703
 O         0.271557        -0.092373         0.723861
 C        -1.639347         0.401141         2.236721
 C        -2.026029         1.828941         2.801739
 C        -0.810931         2.696623         2.624719
 C         0.358578         1.829897         2.132493
 H        -2.244005         4.714465         1.994448
 H        -2.316608         1.626965        -0.386423
 H        -0.845244         2.651811        -0.323540
 H        -0.261153        -0.974663         0.665046
 H        -2.568875        -0.051513         1.795328
 H        -1.146463        -0.416666         2.850676
 H        -2.754202         1.928581         3.593187
 H        -0.823609         3.526667         3.268228
 H         1.066566         2.348750         1.414943
 H         0.970063         1.193672         2.858340
