19
Iteration:   635
 O        -2.739968         3.926488         1.513070
 C        -1.886510         2.758775         1.709923
 C        -1.251315         2.066756         0.508456
 C        -0.482374         0.925168         1.285595
 O         0.100273         0.071257         0.422825
 C        -1.727046         0.377684         2.182018
 C        -2.140586         1.679724         2.730721
 C        -0.853887         2.597392         2.789969
 C         0.321172         1.766362         2.293723
 H        -2.639806         4.488071         0.683087
 H        -1.884785         1.619945        -0.281629
 H        -0.447012         2.700306         0.040087
 H         1.038392         0.356954         0.317577
 H        -2.387121        -0.093579         1.479865
 H        -1.302952        -0.333879         2.934686
 H        -3.023276         1.910182         3.364802
 H        -0.946761         3.291471         3.637505
 H         1.160832         2.224386         1.766325
 H         0.582894         1.209310         3.192063
