19
Iteration:   899charge 0 multiplicity 1
 O        -2.722053         3.806119         1.329769
 C        -1.824252         2.801896         1.742211
 C        -1.327447         2.011395         0.485151
 C        -0.502655         1.005711         1.270430
 O         0.051155        -0.030489         0.400586
 C        -1.609962         0.336263         2.299574
 C        -2.161551         1.758345         2.752805
 C        -0.838289         2.730270         2.848367
 C         0.292430         1.778597         2.291148
 H        -2.508289         4.694899         1.766132
 H        -2.224571         1.624412        -0.085182
 H        -0.755287         2.650186        -0.308915
 H         0.749615         0.428977        -0.222623
 H        -2.318367        -0.107153         1.628101
 H        -1.203865        -0.205358         3.217583
 H        -3.042076         1.950204         3.428961
 H        -0.518903         3.273335         3.753834
 H         1.136491         2.432403         1.848707
 H         0.749188         1.170590         3.114884
