19
Iteration:  4083charge 0 multiplicity 1
 O        -2.902458         3.816464         1.466182
 C        -1.955728         2.816282         1.641789
 C        -1.464687         1.960737         0.457367
 C        -0.620579         0.846764         1.271220
 O         0.106256        -0.101362         0.506296
 C        -1.610588         0.491959         2.457599
 C        -1.926842         1.885549         2.856258
 C        -0.706561         2.817686         2.601383
 C         0.408664         1.749048         1.995216
 H        -2.874989         4.570419         2.118429
 H        -2.326579         1.518858        -0.042506
 H        -0.797810         2.366777        -0.324304
 H         0.978930        -0.132589         0.866928
 H        -2.387791        -0.201167         2.169972
 H        -0.866897         0.009529         3.125166
 H        -2.474371         2.122187         3.704009
 H        -0.394249         3.465706         3.422357
 H         1.105519         2.112258         1.206090
 H         0.954314         1.306934         2.923997
