19
Iteration:   829
 O        -2.745958         3.992352         1.690382
 C        -1.847422         2.809865         1.637911
 C        -1.380260         2.083288         0.339239
 C        -0.469977         0.834773         1.266378
 O         0.222712        -0.158793         0.620535
 C        -1.670424         0.408719         2.123146
 C        -2.103367         1.776638         2.706706
 C        -0.874391         2.621952         2.789492
 C         0.220502         1.873302         2.197043
 H        -2.859230         4.248529         0.723658
 H        -2.265908         1.684473        -0.158277
 H        -0.802704         2.640414        -0.360407
 H         1.110316        -0.029189         0.182704
 H        -2.409972        -0.030843         1.385422
 H        -1.347364        -0.308404         2.918524
 H        -2.902362         1.790897         3.465070
 H        -0.834054         3.232915         3.680551
 H         0.962167         2.571899         1.658946
 H         0.899781         1.358398         2.934225
