19
Iteration:  1553
 O        -2.777591         3.777130         1.395699
 C        -1.833536         2.736121         1.731382
 C        -1.395290         1.929203         0.510058
 C        -0.613865         0.936568         1.337022
 O         0.037545         0.094617         0.427817
 C        -1.574910         0.453145         2.307926
 C        -2.002553         1.834893         2.844630
 C        -0.770119         2.803815         2.674323
 C         0.357929         1.711848         2.285625
 H        -2.345069         4.158327         0.586339
 H        -2.204405         1.550207        -0.155011
 H        -0.713942         2.490974        -0.091011
 H        -0.503975        -0.254287        -0.393243
 H        -2.416971        -0.161095         1.928487
 H        -0.854105        -0.264086         2.936216
 H        -2.645962         2.194051         3.639936
 H        -0.696417         3.722799         3.335625
 H         1.290998         2.005654         1.676582
 H         0.590517         1.145449         3.183497
