19
Iteration:  3688charge 0 multiplicity 1
 O        -2.908083         3.808173         1.529849
 C        -1.919051         2.764493         1.589340
 C        -1.332473         1.962533         0.494405
 C        -0.556366         0.873336         1.338210
 O         0.081933        -0.110631         0.534567
 C        -1.628002         0.442752         2.377141
 C        -1.953717         1.829526         2.841825
 C        -0.776053         2.802747         2.562610
 C         0.385456         1.821833         2.108911
 H        -2.371706         4.633679         1.674634
 H        -2.028641         1.627573        -0.240092
 H        -0.788286         2.627771        -0.193969
 H         0.531689         0.321713        -0.287671
 H        -2.566645        -0.056320         2.084707
 H        -1.309908        -0.178690         3.301291
 H        -2.653727         2.034943         3.708607
 H        -0.501569         3.680572         3.180477
 H         0.991442         2.259114         1.292258
 H         0.943522         1.311040         2.813854
