19
Iteration:  4354charge 0 multiplicity 1
 O        -2.724927         3.793372         1.520893
 C        -1.966520         2.703686         1.696315
 C        -1.480092         1.849927         0.457778
 C        -0.566046         0.907849         1.291173
 O        -0.194327        -0.139663         0.439477
 C        -1.399738         0.471133         2.525619
 C        -1.931598         1.873104         2.953488
 C        -0.723771         2.828002         2.534109
 C         0.425889         2.053390         1.955268
 H        -3.302896         3.559013         0.780329
 H        -2.223974         1.357563        -0.199823
 H        -0.740942         2.428979        -0.192668
 H         0.178965        -0.832768         1.063310
 H        -2.265919        -0.134414         2.218564
 H        -0.671502        -0.157199         3.122564
 H        -2.526744         2.125571         3.895530
 H        -0.473897         3.796239         2.971217
 H         0.969320         2.848635         1.379032
 H         1.133274         1.703035         2.740380
