19
Iteration:  3320charge 0 multiplicity 1
 O        -2.746798         3.946824         1.527828
 C        -1.902808         2.748916         1.632503
 C        -1.343292         1.897913         0.432193
 C        -0.553279         0.923369         1.317881
 O         0.097871        -0.072741         0.500472
 C        -1.635967         0.410452         2.314986
 C        -2.074890         1.810530         2.779336
 C        -0.762397         2.712701         2.723835
 C         0.312657         1.871226         2.134108
 H        -3.625751         3.627629         1.763648
 H        -2.104317         1.471872        -0.254783
 H        -0.659236         2.397024        -0.179402
 H         0.833465         0.353104         0.026064
 H        -2.393093        -0.361083         1.959727
 H        -1.207250        -0.190099         3.152503
 H        -2.776007         1.960339         3.640117
 H        -0.462666         3.657273         3.230942
 H         0.899230         2.505215         1.477675
 H         1.070794         1.492933         2.823951
