19
Iteration:  3569
 O        -2.823493         3.910116         1.426986
 C        -1.895923         2.843163         1.642506
 C        -1.467001         1.986746         0.458701
 C        -0.524221         0.890220         1.267467
 O         0.044321        -0.140101         0.537733
 C        -1.500600         0.388161         2.290428
 C        -1.944441         1.792313         2.874277
 C        -0.766129         2.693759         2.680731
 C         0.315803         1.911722         2.103713
 H        -3.221664         4.250329         2.250239
 H        -2.305533         1.550814        -0.078703
 H        -0.910018         2.453441        -0.439223
 H         0.852300        -0.360278         0.936837
 H        -2.277320        -0.134618         1.763984
 H        -1.115145        -0.303621         3.041516
 H        -2.680808         1.954818         3.632204
 H        -0.669687         3.573936         3.265979
 H         1.023911         2.629611         1.496992
 H         0.831935         1.390949         2.982676
