19
Iteration:   979charge 0 multiplicity 1
 O        -2.727887         3.917488         1.695938
 C        -1.881988         2.771866         1.610854
 C        -1.262345         1.981820         0.307782
 C        -0.560101         1.023771         1.258085
 O         0.127029        -0.083145         0.728757
 C        -1.649110         0.445682         2.148512
 C        -2.034288         1.790745         2.762529
 C        -0.835950         2.647705         2.735678
 C         0.309068         1.805501         2.094678
 H        -3.589202         3.595492         1.273811
 H        -2.062525         1.414659        -0.271012
 H        -0.618918         2.676404        -0.363775
 H         0.065356         0.021709        -0.266854
 H        -2.506249         0.038176         1.567036
 H        -1.342834        -0.310702         2.838536
 H        -2.752752         2.077533         3.487161
 H        -0.757971         3.484831         3.412282
 H         1.185045         2.244406         1.667172
 H         0.652846         1.206393         2.969666
