19
Iteration:  3462charge 0 multiplicity 1
 O        -2.689637         3.812648         1.483246
 C        -1.905352         2.701368         1.614447
 C        -1.368466         1.949072         0.433248
 C        -0.585742         0.958316         1.306512
 O         0.063279        -0.018155         0.541159
 C        -1.638220         0.422698         2.318073
 C        -2.043523         1.804977         2.808005
 C        -0.764759         2.636749         2.720020
 C         0.295966         2.017454         2.029013
 H        -3.080088         3.935282         2.366312
 H        -2.123138         1.614957        -0.351801
 H        -0.529924         2.433341        -0.129036
 H         0.622555        -0.488665         1.159376
 H        -2.516343        -0.213097         1.926153
 H        -1.174875        -0.246949         3.143990
 H        -2.650139         1.859840         3.691392
 H        -0.584235         3.545602         3.262632
 H         0.642115         2.721706         1.308753
 H         1.208247         1.638928         2.581928
