19
Iteration:  1300charge 0 multiplicity 1
 O        -2.575514         3.821699         1.396101
 C        -1.886401         2.674078         1.691726
 C        -1.427559         1.977206         0.517413
 C        -0.548492         0.900476         1.271960
 O         0.066312        -0.000813         0.357937
 C        -1.654752         0.463277         2.398575
 C        -2.097856         1.803587         2.822595
 C        -0.852105         2.715400         2.773482
 C         0.315333         1.848946         2.101704
 H        -3.060549         4.188392         2.132058
 H        -2.313953         1.627314        -0.076232
 H        -0.932383         2.673179        -0.150947
 H         0.958797         0.024746         0.556583
 H        -2.344441        -0.220582         1.933519
 H        -1.132871         0.055789         3.295313
 H        -2.805771         1.830815         3.658810
 H        -0.693535         3.570546         3.483195
 H         0.934038         2.584447         1.483205
 H         1.034124         1.330273         2.787400
