19
Iteration:  4311charge 0 multiplicity 1
 O        -2.791478         3.929475         1.607630
 C        -1.816367         2.780029         1.641959
 C        -1.746317         1.743376         0.459033
 C        -0.673127         0.875933         1.239638
 O         0.205061        -0.048868         0.548197
 C        -1.558103         0.536336         2.502129
 C        -1.892116         1.901775         2.907603
 C        -0.638851         2.674061         2.543248
 C         0.319532         1.867091         1.852314
 H        -3.338725         3.983740         0.799964
 H        -2.662781         1.236978         0.146960
 H        -1.228835         2.396112        -0.290648
 H         0.685966        -0.231610         1.323202
 H        -2.390396        -0.091505         2.201240
 H        -0.987502         0.198420         3.440297
 H        -2.593640         2.115595         3.792612
 H        -0.267314         3.597580         2.991224
 H         0.863121         2.264313         1.033538
 H         1.043725         1.299356         2.428937
