19
Iteration:  1953charge 0 multiplicity 1
 O        -2.708494         3.867898         1.408780
 C        -1.900366         2.787149         1.709929
 C        -1.356911         1.876490         0.557903
 C        -0.556209         0.929545         1.370550
 O         0.087506         0.038206         0.390467
 C        -1.648163         0.399239         2.327200
 C        -2.027225         1.803599         2.835602
 C        -0.787254         2.714660         2.746754
 C         0.384116         1.931117         2.082569
 H        -3.600523         3.496325         1.417926
 H        -2.113537         1.387354        -0.070001
 H        -0.796270         2.354187        -0.308538
 H        -0.161660        -0.917231         0.719111
 H        -2.428774        -0.218526         1.736810
 H        -1.146587        -0.159236         3.130603
 H        -2.722796         1.858870         3.680736
 H        -0.589543         3.664124         3.277879
 H         0.791874         2.534198         1.260439
 H         1.089657         1.611124         2.908143
