19
Iteration:  2568charge 0 multiplicity 1
 O        -2.792056         3.823282         1.401827
 C        -1.824334         2.762688         1.639964
 C        -1.303164         1.972397         0.390215
 C        -0.631330         0.942059         1.273584
 O         0.068664         0.014985         0.540667
 C        -1.599361         0.484307         2.389477
 C        -2.016086         1.827868         2.816998
 C        -0.709819         2.690735         2.770525
 C         0.292646         1.846547         2.099663
 H        -3.625250         3.612698         1.836961
 H        -2.137535         1.624474        -0.158714
 H        -0.453061         2.495708        -0.064885
 H        -0.497840        -0.669869         0.220420
 H        -2.239385        -0.371502         1.975756
 H        -1.084594        -0.053977         3.237796
 H        -2.761423         1.874090         3.634199
 H        -0.377355         3.461229         3.435455
 H         0.991458         2.511577         1.634807
 H         0.933981         1.193063         2.707483
