19
Iteration:  4040
 O        -2.651114         3.826057         1.516312
 C        -1.887800         2.661086         1.695489
 C        -1.537857         1.855713         0.477068
 C        -0.503233         0.996341         1.300206
 O        -0.045772        -0.092667         0.501657
 C        -1.491293         0.488715         2.374827
 C        -2.051761         1.805918         2.798160
 C        -0.792816         2.701739         2.687954
 C         0.350996         2.065451         2.032747
 H        -2.440655         4.179433         0.612302
 H        -2.182670         1.084291         0.095801
 H        -1.327387         2.516062        -0.355172
 H         0.720085        -0.595701         0.896520
 H        -2.252381        -0.124597         1.984921
 H        -1.065722         0.170307         3.275180
 H        -2.695891         1.816835         3.616692
 H        -0.687844         3.553920         3.372330
 H         0.686769         2.675186         1.215696
 H         1.031489         1.490228         2.713500
