19
Iteration:   294
 O        -2.754900         3.907410         1.492650
 C        -1.955724         2.796818         1.745036
 C        -1.260183         2.102013         0.517229
 C        -0.498696         0.938474         1.262829
 O         0.100875        -0.106843         0.383058
 C        -1.688193         0.371886         2.205208
 C        -2.018132         1.783167         2.777444
 C        -0.826509         2.701189         2.704205
 C         0.294853         1.808163         2.291261
 H        -3.600248         3.642031         1.157768
 H        -1.873633         1.664770        -0.337983
 H        -0.519863         2.836129         0.258109
 H         1.033712         0.071383         0.461535
 H        -2.580991        -0.071932         1.639625
 H        -1.262911        -0.320541         2.935303
 H        -2.742049         1.989655         3.528573
 H        -0.741744         3.356453         3.544493
 H         1.218845         2.238209         1.747923
 H         0.636883         1.166380         3.120937
