19
Iteration:   353
 O        -2.636437         3.983086         1.574744
 C        -1.905792         2.792942         1.688517
 C        -1.290789         2.088495         0.432498
 C        -0.540049         0.923244         1.280912
 O         0.232904        -0.096870         0.576325
 C        -1.681969         0.373156         2.137178
 C        -2.175810         1.696316         2.755313
 C        -0.904502         2.646661         2.749266
 C         0.297337         1.804603         2.178877
 H        -3.584760         3.865136         1.832643
 H        -1.976942         1.749083        -0.353789
 H        -0.581652         2.814199        -0.064717
 H         0.598211         0.244781        -0.240726
 H        -2.451245        -0.132912         1.596204
 H        -1.249529        -0.327294         2.898710
 H        -3.036563         1.886116         3.449818
 H        -0.951089         3.543181         3.416728
 H         0.879265         2.446007         1.577450
 H         0.913166         1.225431         2.917305
