19
Iteration:  2463charge 0 multiplicity 1
 O        -2.641912         3.930749         1.504583
 C        -1.974321         2.720336         1.624633
 C        -1.446353         1.894289         0.444766
 C        -0.561323         0.939153         1.275212
 O         0.076612        -0.061406         0.471522
 C        -1.563289         0.419671         2.342642
 C        -2.027023         1.774793         2.883084
 C        -0.794417         2.748378         2.684299
 C         0.362550         1.969489         2.123336
 H        -3.535616         3.576019         1.251302
 H        -2.262875         1.343744        -0.144684
 H        -0.933962         2.308599        -0.423884
 H         0.168364        -0.921670         0.825795
 H        -2.413850        -0.078639         1.999115
 H        -0.975797        -0.153842         3.058415
 H        -2.493878         1.812047         3.883747
 H        -0.576305         3.734533         3.061968
 H         0.929332         2.561963         1.438064
 H         0.868998         1.722298         3.005186
