19
Iteration:  3122
 O        -2.794820         4.024593         1.542295
 C        -1.959076         2.797077         1.613883
 C        -1.395583         1.981119         0.395915
 C        -0.514810         0.892583         1.255813
 O         0.161637        -0.052268         0.566914
 C        -1.623505         0.423818         2.235567
 C        -1.930169         1.703863         2.823726
 C        -0.814820         2.753887         2.637035
 C         0.362226         1.796075         2.175690
 H        -3.744312         3.827768         1.734941
 H        -2.026772         1.458814        -0.414011
 H        -0.755820         2.718580        -0.035463
 H         0.193296        -0.981885         1.009995
 H        -2.539408        -0.030840         1.843479
 H        -1.053766        -0.241215         2.880037
 H        -2.728213         1.774157         3.553262
 H        -0.782448         3.639435         3.306649
 H         1.196738         2.375710         1.702056
 H         0.562177         1.132221         3.125199
