19
Iteration:   369charge 0 multiplicity 1
 O        -2.569971         4.089735         1.523194
 C        -1.970472         2.745327         1.646563
 C        -1.313558         1.961076         0.468558
 C        -0.506249         0.942286         1.158745
 O         0.260899        -0.091130         0.435914
 C        -1.664930         0.373529         2.233088
 C        -2.097270         1.732545         2.811700
 C        -0.965098         2.600638         2.836029
 C         0.176156         1.885942         2.313570
 H        -3.518988         3.871179         1.237443
 H        -2.113244         1.539539        -0.227949
 H        -0.756725         2.556523        -0.287440
 H         0.657396         0.443154        -0.337595
 H        -2.478640        -0.237300         1.687651
 H        -1.304572        -0.324416         2.987086
 H        -2.821478         1.680751         3.575209
 H        -0.651985         3.241424         3.613551
 H         1.016604         2.523048         1.853906
 H         0.697507         1.237653         3.047148
