19
Iteration:  4859
 O        -2.721388         3.865009         1.421770
 C        -1.964691         2.686861         1.609270
 C        -1.530958         1.688875         0.490904
 C        -0.528953         0.971601         1.344803
 O        -0.016363         0.032371         0.347470
 C        -1.458314         0.456504         2.565239
 C        -2.002269         1.893531         2.929685
 C        -0.776510         2.712614         2.597381
 C         0.332621         1.980749         2.038018
 H        -2.208975         4.596492         1.851060
 H        -2.378160         1.012016         0.185804
 H        -1.023819         2.122348        -0.405469
 H         0.601692        -0.656073         0.819694
 H        -2.120901        -0.172721         2.025391
 H        -0.895653        -0.095968         3.407338
 H        -2.638452         1.913620         3.822913
 H        -0.536588         3.652187         3.168247
 H         0.833069         2.584371         1.306155
 H         0.984667         1.401893         2.706141
