19
Iteration:  4454charge 0 multiplicity 1
 O        -2.812934         3.934812         1.476079
 C        -1.915165         2.804037         1.690267
 C        -1.587020         1.851143         0.501005
 C        -0.577567         0.830152         1.259638
 O         0.047194        -0.185319         0.519196
 C        -1.390031         0.446646         2.485062
 C        -1.965636         1.814617         2.859311
 C        -0.730906         2.732093         2.606800
 C         0.284846         2.016125         1.880392
 H        -2.178142         4.701507         1.569698
 H        -2.584242         1.493239         0.169330
 H        -1.073391         2.306127        -0.367344
 H         0.626766        -0.535555         1.143326
 H        -2.142932        -0.266384         2.218241
 H        -0.791351         0.102860         3.380916
 H        -2.606105         1.961525         3.681935
 H        -0.610277         3.461868         3.402582
 H         0.714181         2.594489         1.064027
 H         1.139525         1.645735         2.525952
