19
Iteration:  2138charge 0 multiplicity 1
 O        -2.791004         3.867342         1.637696
 C        -1.855900         2.824836         1.600182
 C        -1.497566         2.015136         0.352828
 C        -0.577104         0.984300         1.206142
 O         0.263090        -0.155798         0.699264
 C        -1.630502         0.448442         2.209886
 C        -1.968369         1.854241         2.853274
 C        -0.810345         2.743453         2.695192
 C         0.367669         1.872620         2.009047
 H        -3.651439         3.392964         1.639394
 H        -2.285363         1.369569        -0.202688
 H        -0.862800         2.610139        -0.434404
 H        -0.481718        -0.890296         0.692466
 H        -2.501568        -0.212341         1.933462
 H        -0.950687        -0.024150         2.908995
 H        -2.732149         1.917515         3.590893
 H        -0.519193         3.414987         3.481291
 H         0.988975         2.413142         1.287568
 H         0.794908         1.118532         2.709219
