19
Iteration:   241
 O        -2.470916         4.091362         1.552601
 C        -2.003591         2.813710         1.731848
 C        -1.475355         1.910137         0.470150
 C        -0.486657         0.926737         1.226159
 O         0.281754        -0.017780         0.373309
 C        -1.627266         0.356321         2.231127
 C        -2.243468         1.644582         2.816295
 C        -0.952588         2.609079         2.752106
 C         0.295383         1.949287         2.194906
 H        -3.261690         4.012123         1.011983
 H        -2.404179         1.283410         0.148672
 H        -1.065225         2.516675        -0.353092
 H         0.798823        -0.561162         0.953849
 H        -2.442860        -0.247547         1.723696
 H        -1.198765        -0.292410         3.019377
 H        -2.724211         1.562381         3.769347
 H        -0.900067         3.452037         3.440564
 H         0.966566         2.529475         1.518998
 H         0.866804         1.461686         2.986706
