19
Iteration:  2623charge 0 multiplicity 1
 O        -2.612143         3.973684         1.648314
 C        -1.954214         2.680879         1.590978
 C        -1.404422         1.865395         0.446354
 C        -0.572377         0.973659         1.287166
 O         0.163626        -0.036955         0.552789
 C        -1.587058         0.413571         2.323218
 C        -2.025354         1.821237         2.823441
 C        -0.878833         2.724692         2.605264
 C         0.316625         1.894643         2.060508
 H        -3.434992         4.075435         1.082233
 H        -2.274769         1.424547        -0.011909
 H        -0.845789         2.359901        -0.400446
 H        -0.001869        -0.887758         0.882797
 H        -2.356078         0.008579         1.640528
 H        -1.093072        -0.232807         2.972488
 H        -2.716781         1.901548         3.626755
 H        -0.927839         3.536842         3.306370
 H         0.909601         2.350890         1.336382
 H         0.871258         1.394905         2.820627
