19
Iteration:  1445charge 0 multiplicity 1
 O        -2.715530         3.887262         1.558700
 C        -1.845158         2.832675         1.673818
 C        -1.431626         1.973778         0.431918
 C        -0.620625         0.839004         1.326849
 O         0.237416        -0.007841         0.518311
 C        -1.695619         0.402041         2.329221
 C        -2.081304         1.793402         2.764093
 C        -0.834203         2.687729         2.662488
 C         0.329761         1.893048         2.086626
 H        -2.174240         4.698186         1.475656
 H        -2.366229         1.435023        -0.027551
 H        -0.766458         2.372121        -0.336305
 H        -0.156892        -0.958897         0.418355
 H        -2.464508        -0.223319         1.886564
 H        -1.142352        -0.172627         3.119565
 H        -2.851413         1.905867         3.498311
 H        -0.582521         3.372090         3.468782
 H         0.958052         2.482500         1.297460
 H         1.017564         1.363587         2.779335
