19
Iteration:  1698charge 0 multiplicity 1
 O        -2.807886         3.878292         1.417577
 C        -1.913149         2.790135         1.721144
 C        -1.355693         2.056217         0.536524
 C        -0.534393         0.907227         1.280620
 O         0.110234        -0.118927         0.471802
 C        -1.618964         0.434492         2.240634
 C        -1.994200         1.808554         2.904882
 C        -0.819752         2.741007         2.742418
 C         0.370328         1.777512         2.191027
 H        -2.702955         4.019076         0.475432
 H        -2.100030         1.551190        -0.139561
 H        -0.666918         2.585506        -0.090910
 H        -0.251357         0.044405        -0.360328
 H        -2.426269        -0.056970         1.621853
 H        -1.207487        -0.277812         3.056012
 H        -2.590249         1.999800         3.781557
 H        -0.755687         3.560234         3.462454
 H         1.088834         2.479092         1.666435
 H         0.838791         1.161949         3.007475
