19
Iteration:  4971
 O        -2.816102         3.854810         1.449680
 C        -1.920022         2.778206         1.691665
 C        -1.438356         1.929722         0.480036
 C        -0.527312         0.918343         1.313067
 O        -0.056282        -0.100758         0.440294
 C        -1.516908         0.480062         2.430805
 C        -1.982857         1.834877         2.912334
 C        -0.668556         2.742667         2.609785
 C         0.386319         1.895867         2.035224
 H        -3.384159         3.549633         0.692755
 H        -2.299322         1.457458        -0.069820
 H        -0.994731         2.716038        -0.202995
 H         0.600749        -0.615990         0.892631
 H        -2.306957        -0.187227         2.093565
 H        -0.942001        -0.002081         3.303636
 H        -2.599322         2.087749         3.739935
 H        -0.462197         3.441027         3.364404
 H         1.074797         2.423587         1.454911
 H         0.952440         1.510814         2.921800
