19
Iteration:  3660
 O        -2.789155         3.734549         1.482292
 C        -1.804287         2.765935         1.677358
 C        -1.469126         1.916462         0.449628
 C        -0.551624         0.983901         1.215398
 O        -0.003966        -0.127196         0.588770
 C        -1.504459         0.528036         2.274229
 C        -1.997839         1.813504         2.785041
 C        -0.790781         2.769881         2.825724
 C         0.367325         1.944900         2.158136
 H        -2.466151         4.245576         0.688535
 H        -2.480431         1.432675         0.119896
 H        -1.069115         2.456642        -0.448032
 H         0.038887        -0.014339        -0.366278
 H        -2.353545        -0.050564         1.913749
 H        -1.063743         0.040389         3.105792
 H        -2.751448         1.835348         3.557965
 H        -0.539006         3.500722         3.609324
 H         1.078746         2.485033         1.470426
 H         0.977181         1.075651         2.706460
