19
Iteration:   747
 O        -2.702274         3.925426         1.479701
 C        -1.923839         2.820852         1.699954
 C        -1.246917         2.115837         0.564434
 C        -0.513400         0.994058         1.271066
 O         0.141703        -0.059824         0.568893
 C        -1.673740         0.401298         2.150110
 C        -2.122762         1.716439         2.640418
 C        -0.824196         2.646853         2.755340
 C         0.318987         1.774767         2.228940
 H        -3.538731         3.814211         1.968840
 H        -1.954492         1.496988         0.017062
 H        -0.606885         2.689996        -0.122575
 H         0.404703         0.155291        -0.403565
 H        -2.345405        -0.149032         1.521945
 H        -1.358273        -0.376464         2.858202
 H        -2.992014         1.797910         3.247209
 H        -0.840446         3.144127         3.710536
 H         1.122792         2.302741         1.810233
 H         0.589946         1.041053         3.003320
