19
Iteration:  1359
 O        -2.740940         3.794340         1.678378
 C        -1.911735         2.757174         1.625486
 C        -1.370047         1.961346         0.387180
 C        -0.562717         0.979844         1.265397
 O         0.140942        -0.147698         0.637213
 C        -1.706112         0.447170         2.212518
 C        -2.072942         1.836411         2.773530
 C        -0.795205         2.724535         2.714322
 C         0.348384         1.901382         2.095339
 H        -2.207908         4.445257         1.147288
 H        -2.227248         1.433306        -0.155315
 H        -0.669876         2.574819        -0.249524
 H         0.389459         0.108434        -0.297494
 H        -2.375920        -0.150144         1.591514
 H        -1.305045        -0.243363         2.957420
 H        -2.728676         2.119514         3.571911
 H        -0.715827         3.654158         3.240046
 H         1.080648         2.545047         1.583984
 H         0.874424         1.263890         2.801284
