19
Iteration:  1324
 O        -2.704435         4.024027         1.470770
 C        -1.901843         2.820990         1.635749
 C        -1.485665         2.010155         0.419516
 C        -0.606459         0.935089         1.258599
 O         0.116425        -0.070944         0.617592
 C        -1.548343         0.291208         2.258696
 C        -2.019915         1.719600         2.828324
 C        -0.857595         2.658863         2.750546
 C         0.287259         1.819365         2.059786
 H        -2.621149         4.726125         2.168632
 H        -2.394479         1.401482        -0.078608
 H        -0.905387         2.266874        -0.476258
 H         1.050424         0.224233         0.635901
 H        -2.206441        -0.325214         1.693522
 H        -0.930463        -0.259999         3.011177
 H        -2.623977         1.761670         3.773708
 H        -0.593265         3.524171         3.332724
 H         0.943930         2.431332         1.330232
 H         0.945590         1.337510         2.769147
