19
Iteration:   928charge 0 multiplicity 1
 O        -2.585973         3.978455         1.350334
 C        -1.982370         2.693026         1.697599
 C        -1.331732         1.935261         0.465735
 C        -0.579196         0.975359         1.291314
 O         0.149032         0.000500         0.484139
 C        -1.651060         0.316462         2.249384
 C        -2.111054         1.690197         2.861755
 C        -0.863745         2.710722         2.753086
 C         0.300697         1.845441         2.239417
 H        -2.967131         4.395059         2.141007
 H        -2.062768         1.666728        -0.273960
 H        -0.621680         2.587632         0.042334
 H         0.290080         0.405264        -0.358296
 H        -2.483976        -0.108758         1.660857
 H        -1.275260        -0.335714         3.074907
 H        -2.856068         1.719870         3.616044
 H        -0.679025         3.509715         3.467184
 H         1.012790         2.486827         1.682217
 H         0.933425         1.409070         3.002211
