19
Iteration:  1167
 O        -2.615475         3.898570         1.353227
 C        -1.836637         2.734980         1.684108
 C        -1.418206         1.921452         0.462461
 C        -0.626335         0.935765         1.267525
 O         0.085807         0.022268         0.404257
 C        -1.613866         0.389742         2.384631
 C        -2.035244         1.779434         2.923823
 C        -0.797286         2.694666         2.781443
 C         0.280065         1.876748         2.151347
 H        -3.529231         3.661682         1.576706
 H        -2.390501         1.401411         0.076432
 H        -0.777613         2.404275        -0.318967
 H         0.590695         0.611683        -0.097255
 H        -2.482147        -0.255745         2.129557
 H        -1.006056        -0.160965         3.113125
 H        -2.954461         1.879195         3.487860
 H        -0.600855         3.511428         3.440340
 H         1.143874         2.429622         1.741028
 H         0.731472         1.193737         2.971306
