19
Iteration:  4906
 O        -2.906831         3.898576         1.424524
 C        -1.948180         2.777105         1.703880
 C        -1.505416         1.932745         0.476061
 C        -0.549227         0.928021         1.227192
 O         0.023940        -0.127470         0.607910
 C        -1.471828         0.458125         2.355767
 C        -1.873894         1.803294         2.917269
 C        -0.777690         2.726609         2.634301
 C         0.393846         1.900389         1.941138
 H        -2.405503         4.699126         1.542622
 H        -2.299122         1.287470         0.050292
 H        -1.002447         2.568915        -0.311302
 H         0.406102        -0.772533         1.184151
 H        -2.285602        -0.186749         2.001594
 H        -0.781032        -0.083127         3.043583
 H        -2.541970         1.849752         3.790575
 H        -0.436492         3.475351         3.325052
 H         0.864050         2.399202         1.167625
 H         1.059060         1.509886         2.724784
