19
Iteration:  3643
 O        -2.752187         3.878559         1.443518
 C        -1.947969         2.774948         1.707459
 C        -1.489721         2.003938         0.527154
 C        -0.509154         1.005150         1.273501
 O         0.044078        -0.168230         0.581695
 C        -1.527402         0.431465         2.334640
 C        -2.040339         1.786393         2.852188
 C        -0.764833         2.656836         2.698579
 C         0.419145         1.899196         2.087068
 H        -2.724104         3.989177         0.455179
 H        -2.281221         1.488310        -0.009877
 H        -1.122969         2.668217        -0.266189
 H         0.130477         0.007749        -0.393489
 H        -2.204723        -0.296468         1.820396
 H        -0.922053        -0.225012         3.041359
 H        -2.778764         1.981914         3.610743
 H        -0.707073         3.540437         3.297593
 H         0.954581         2.655047         1.550607
 H         0.982406         1.525665         2.846403
