19
Iteration:  2754
 O        -2.564997         3.913710         1.569978
 C        -1.977059         2.697974         1.659610
 C        -1.403751         1.953671         0.424052
 C        -0.529600         0.975945         1.260252
 O         0.075066        -0.148354         0.521380
 C        -1.530111         0.401887         2.238807
 C        -2.091480         1.814582         2.895313
 C        -0.854654         2.754025         2.651784
 C         0.285779         1.959997         2.095778
 H        -3.459120         3.711697         1.228054
 H        -2.229341         1.395167        -0.059438
 H        -0.778500         2.646031        -0.326602
 H         0.512805        -0.693709         1.134830
 H        -2.350501        -0.160341         1.716386
 H        -1.137538        -0.305572         2.976977
 H        -2.874477         1.936594         3.663661
 H        -0.754541         3.700446         3.231901
 H         0.864396         2.665299         1.515128
 H         0.937188         1.564111         2.860377
