19
Iteration:  1181charge 0 multiplicity 1
 O        -2.575162         3.961180         1.461223
 C        -1.884362         2.788233         1.656069
 C        -1.519069         1.872831         0.410624
 C        -0.559195         0.945455         1.165084
 O         0.193144        -0.031944         0.524993
 C        -1.588280         0.417415         2.335214
 C        -2.063373         1.804112         2.902981
 C        -0.870660         2.635788         2.753660
 C         0.258459         1.836447         2.192504
 H        -3.566045         3.892910         1.589996
 H        -2.436909         1.318876        -0.116980
 H        -1.105349         2.465417        -0.431355
 H         0.405053         0.210461        -0.449075
 H        -2.295142        -0.264049         1.911052
 H        -0.987004        -0.083158         3.149497
 H        -2.562198         2.052613         3.819727
 H        -0.673370         3.490832         3.414342
 H         0.840502         2.613794         1.626523
 H         0.894575         1.232673         2.826024
