19
Iteration:  3169charge 0 multiplicity 1
 O        -2.667068         3.894429         1.352337
 C        -1.896842         2.796152         1.667523
 C        -1.381512         1.945788         0.471581
 C        -0.594004         0.899030         1.286767
 O         0.168752         0.010936         0.451225
 C        -1.581127         0.381501         2.337899
 C        -2.090220         1.772495         2.877865
 C        -0.801976         2.659292         2.837813
 C         0.351817         1.925307         2.182707
 H        -3.605025         3.771558         1.498074
 H        -2.337353         1.653988        -0.115189
 H        -0.625802         2.400616        -0.216657
 H        -0.469920        -0.572940        -0.060889
 H        -2.387747        -0.093021         1.839142
 H        -1.167505        -0.203418         3.089430
 H        -2.845278         1.953355         3.676168
 H        -0.761057         3.512911         3.496892
 H         0.717741         2.545342         1.310324
 H         1.070223         1.396142         2.790207
