19
Iteration:   648charge 0 multiplicity 1
 O        -2.661878         3.849655         1.475570
 C        -1.928157         2.724146         1.668775
 C        -1.258754         2.124082         0.492758
 C        -0.569537         0.977493         1.269978
 O         0.130618         0.039528         0.323785
 C        -1.642202         0.369148         2.202252
 C        -2.126570         1.757014         2.752399
 C        -0.931452         2.621675         2.834526
 C         0.240208         1.737795         2.406921
 H        -2.142988         4.222480         0.755837
 H        -1.973694         1.785144        -0.186907
 H        -0.621119         2.847982         0.003055
 H         1.053320         0.330179         0.229279
 H        -2.502040        -0.172025         1.811782
 H        -1.301329        -0.322597         3.010542
 H        -2.856895         1.766742         3.604739
 H        -0.704318         3.475887         3.495926
 H         0.949497         2.437172         1.994096
 H         0.863299         1.063246         3.067583
