19
Iteration:   771
 O        -2.629091         3.930002         1.404257
 C        -1.858550         2.771383         1.678705
 C        -1.256397         2.009791         0.449944
 C        -0.529963         0.904922         1.235799
 O         0.093852         0.037109         0.368624
 C        -1.697825         0.362978         2.254360
 C        -2.130897         1.732663         2.846669
 C        -0.863183         2.641702         2.862152
 C         0.323160         1.851060         2.408256
 H        -3.460228         3.596192         1.102620
 H        -2.058172         1.714367        -0.208226
 H        -0.499040         2.513680        -0.084837
 H         0.590388         0.423952        -0.329523
 H        -2.561873        -0.126372         1.703795
 H        -1.359918        -0.474204         2.839411
 H        -3.015238         1.728773         3.494813
 H        -0.964708         3.497936         3.531627
 H         0.812898         2.632197         1.873526
 H         0.926096         1.129866         2.992748
