19
Iteration:  3047charge 0 multiplicity 1
 O        -2.576768         4.013330         1.400124
 C        -2.069112         2.694273         1.695926
 C        -1.380956         2.003134         0.563852
 C        -0.576630         0.910766         1.251268
 O         0.086732        -0.062566         0.327133
 C        -1.492506         0.389371         2.349078
 C        -2.037638         1.730814         2.845327
 C        -0.876069         2.744070         2.726478
 C         0.285848         1.835041         2.237686
 H        -3.452265         3.821625         0.997677
 H        -2.054166         1.356892        -0.177230
 H        -0.971637         2.695457        -0.124597
 H         0.779737        -0.390774         0.843387
 H        -2.228818        -0.316122         2.031946
 H        -1.003966        -0.062772         3.207181
 H        -2.871572         1.862765         3.518970
 H        -0.755494         3.733057         3.192365
 H         1.197917         2.412209         1.840272
 H         0.642655         1.390645         3.099850
