19
Iteration:  4734charge 0 multiplicity 1
 O        -2.752671         3.761910         1.372937
 C        -1.864726         2.744368         1.732098
 C        -1.621821         1.771768         0.599297
 C        -0.661409         0.886970         1.315040
 O         0.154144         0.124653         0.399324
 C        -1.566956         0.478276         2.520650
 C        -1.895756         1.845024         2.926923
 C        -0.678105         2.816050         2.544962
 C         0.303920         1.859006         1.956371
 H        -2.393338         4.689929         1.403658
 H        -2.500021         1.227154         0.342306
 H        -1.263536         2.213695        -0.319478
 H         0.209339        -0.720470         1.015104
 H        -2.539131        -0.077980         2.215398
 H        -1.145342        -0.181172         3.242838
 H        -2.753514         1.934248         3.669919
 H        -0.511731         3.593960         3.328033
 H         0.930330         2.332390         1.108853
 H         1.038554         1.390305         2.593881
