19
Iteration:  3418charge 0 multiplicity 1
 O        -2.840520         3.826764         1.411593
 C        -1.956099         2.771712         1.630625
 C        -1.478456         1.955022         0.403715
 C        -0.538004         0.925979         1.279860
 O         0.042230        -0.002668         0.468897
 C        -1.500114         0.491673         2.372810
 C        -1.989617         1.778072         2.861358
 C        -0.763064         2.707822         2.684988
 C         0.357914         1.775727         2.220799
 H        -2.411476         4.700013         1.487872
 H        -2.301848         1.393257        -0.150140
 H        -0.931523         2.645475        -0.305273
 H         0.985045         0.091589         0.556293
 H        -2.242800        -0.070266         1.667274
 H        -1.164295        -0.241289         3.199249
 H        -2.421255         1.916469         3.843558
 H        -0.602646         3.574480         3.352424
 H         1.247959         2.178961         1.833742
 H         0.686269         1.150755         3.079938
