19
Iteration:  3319charge 0 multiplicity 1
 O        -2.750569         3.944690         1.525175
 C        -1.898722         2.758776         1.635424
 C        -1.350178         1.888877         0.437505
 C        -0.553417         0.919775         1.325386
 O         0.095263        -0.064866         0.494797
 C        -1.641676         0.414005         2.316448
 C        -2.084245         1.808005         2.771250
 C        -0.759856         2.720031         2.727478
 C         0.326990         1.862594         2.131186
 H        -3.614945         3.619250         1.779706
 H        -2.075372         1.467299        -0.269252
 H        -0.610537         2.348684        -0.181151
 H         0.871266         0.389276         0.022141
 H        -2.384085        -0.363921         1.938958
 H        -1.215404        -0.185473         3.189506
 H        -2.749210         1.954951         3.651410
 H        -0.469726         3.648239         3.238893
 H         0.847112         2.487848         1.458962
 H         1.090783         1.493184         2.826289
