19
Iteration:  4067charge 0 multiplicity 1
 O        -2.863956         3.899131         1.502478
 C        -1.912235         2.748843         1.635307
 C        -1.445739         1.879685         0.454408
 C        -0.579712         0.892957         1.275981
 O         0.015777        -0.135207         0.509884
 C        -1.467087         0.392359         2.432850
 C        -1.911058         1.840446         2.871414
 C        -0.769371         2.743163         2.588966
 C         0.297011         1.955808         2.040471
 H        -2.240866         4.650051         1.690377
 H        -2.211138         1.389455        -0.209830
 H        -0.808416         2.544436        -0.176926
 H         0.979774        -0.256107         0.808066
 H        -2.424682        -0.053522         2.000327
 H        -1.093789        -0.168697         3.345915
 H        -2.683984         2.051274         3.694822
 H        -0.516655         3.671045         3.101814
 H         0.885038         2.543710         1.303319
 H         0.805709         1.359863         2.757903
