19
Iteration:  1094charge 0 multiplicity 1
 O        -2.695362         3.942371         1.709119
 C        -1.857023         2.794489         1.663330
 C        -1.363138         2.010263         0.376391
 C        -0.588781         0.995320         1.210293
 O         0.134204        -0.127722         0.674393
 C        -1.674608         0.397795         2.276111
 C        -2.117048         1.753728         2.676862
 C        -0.803606         2.681869         2.625014
 C         0.360998         1.849855         2.039651
 H        -3.561277         3.624633         1.310962
 H        -2.224648         1.561015        -0.168477
 H        -0.821022         2.661282        -0.260060
 H         1.063319         0.055791         0.912793
 H        -2.502897        -0.104204         1.770111
 H        -1.261929        -0.308586         3.069631
 H        -2.924787         1.933317         3.358036
 H        -0.644277         3.447499         3.354041
 H         1.143866         2.336241         1.422069
 H         0.907419         1.361161         2.800008
