19
Iteration:   750
 O        -2.696136         3.935694         1.459831
 C        -1.914563         2.814043         1.700592
 C        -1.250889         2.111511         0.577802
 C        -0.527818         0.980884         1.307111
 O         0.140280        -0.061064         0.527236
 C        -1.665127         0.405063         2.151503
 C        -2.106908         1.722976         2.644174
 C        -0.850030         2.633070         2.777897
 C         0.316810         1.778027         2.224182
 H        -3.580245         3.745010         1.902926
 H        -1.857940         1.408539         0.028581
 H        -0.657733         2.651811        -0.081061
 H         0.381197         0.238186        -0.368718
 H        -2.354677        -0.127710         1.413815
 H        -1.339355        -0.296703         2.913091
 H        -2.958696         1.836057         3.311414
 H        -0.782098         3.156161         3.732676
 H         1.147058         2.331171         1.774689
 H         0.559654         1.123293         3.090566
