19
Iteration:   276
 O        -2.640675         3.927228         1.475738
 C        -1.842626         2.748511         1.644293
 C        -1.287978         2.023614         0.439033
 C        -0.602601         0.949190         1.332759
 O         0.034746         0.163161         0.456834
 C        -1.614491         0.360822         2.283031
 C        -2.146972         1.677261         2.801775
 C        -0.860933         2.608281         2.774902
 C         0.324722         1.764280         2.200229
 H        -3.352870         3.824011         0.861111
 H        -2.059867         1.612356        -0.219962
 H        -0.581736         2.525145        -0.280211
 H         0.954354         0.194028         0.584463
 H        -2.385196        -0.192098         1.801063
 H        -1.117220        -0.309922         3.023694
 H        -2.839062         1.684059         3.649287
 H        -0.735047         3.498278         3.389894
 H         1.021384         2.347806         1.672675
 H         0.832782         1.194420         2.995645
