19
Iteration:  2532charge 0 multiplicity 1
 O        -2.725379         3.896891         1.468513
 C        -1.963208         2.731941         1.711937
 C        -1.383048         1.886823         0.497853
 C        -0.541392         0.923572         1.272516
 O         0.099110        -0.178383         0.539368
 C        -1.563827         0.486290         2.251563
 C        -2.067138         1.807317         2.858936
 C        -0.712307         2.793263         2.651560
 C         0.349330         1.944306         2.155174
 H        -3.625758         3.647742         1.623068
 H        -2.200993         1.513612        -0.116952
 H        -0.844967         2.426243        -0.420223
 H        -0.109902         0.045304        -0.371718
 H        -2.341363        -0.017953         1.683819
 H        -1.201981        -0.024120         3.119152
 H        -2.628169         1.869382         3.800427
 H        -0.549991         3.677106         3.301880
 H         1.132224         2.528927         1.644919
 H         0.652379         1.353242         2.929250
