19
Iteration:  1335
 O        -2.764319         4.025875         1.536131
 C        -1.931216         2.848687         1.655219
 C        -1.492433         1.969057         0.382955
 C        -0.515680         0.878765         1.263166
 O         0.175092        -0.175510         0.643021
 C        -1.584259         0.413114         2.186786
 C        -2.006896         1.698917         2.837346
 C        -0.845055         2.711056         2.669442
 C         0.297707         1.837664         2.107589
 H        -2.173749         4.612032         2.018341
 H        -2.525204         1.477549         0.086105
 H        -1.126273         2.729232        -0.306710
 H         0.966518         0.142440         0.325524
 H        -2.339104        -0.162040         1.690646
 H        -1.183231        -0.319180         2.946481
 H        -2.710006         1.673724         3.706090
 H        -0.733981         3.560191         3.331117
 H         0.933274         2.555716         1.463623
 H         0.923668         1.233691         2.753270
