19
Iteration:  2109charge 0 multiplicity 1
 O        -2.697460         3.903972         1.622803
 C        -1.964639         2.708300         1.618391
 C        -1.446850         1.950070         0.428782
 C        -0.562853         0.908019         1.321401
 O         0.252017        -0.034160         0.607896
 C        -1.704495         0.360361         2.299500
 C        -1.991283         1.819791         2.857099
 C        -0.792119         2.829766         2.584970
 C         0.374295         1.904313         2.012391
 H        -3.672556         3.678385         1.562262
 H        -2.093458         1.359509        -0.304066
 H        -0.757391         2.568896        -0.135283
 H        -0.344766        -0.609305         0.110682
 H        -2.605831        -0.100007         1.849892
 H        -1.316849        -0.353225         3.049262
 H        -2.806985         1.949341         3.570895
 H        -0.600742         3.689801         3.247334
 H         1.092191         2.206129         1.258167
 H         0.976473         1.335192         2.748412
