19
Iteration:   507charge 0 multiplicity 1
 O        -2.633279         4.013514         1.302616
 C        -1.919406         2.824846         1.710982
 C        -1.359433         2.085071         0.520501
 C        -0.520701         0.965621         1.302659
 O         0.155294         0.045937         0.498733
 C        -1.693572         0.261887         2.124431
 C        -2.112685         1.651505         2.804871
 C        -0.895865         2.573740         2.827358
 C         0.302666         1.772579         2.279507
 H        -3.201559         4.237300         2.039001
 H        -1.978095         1.558776        -0.161032
 H        -0.792652         2.894132         0.004558
 H         0.748004         0.532138        -0.116923
 H        -2.376867        -0.407980         1.620766
 H        -1.236575        -0.401902         2.915496
 H        -2.734828         1.566543         3.675458
 H        -0.690718         3.362651         3.528487
 H         1.165069         2.234498         1.772695
 H         0.808153         1.253795         3.158562
