19
Iteration:  1333
 O        -2.761834         4.031327         1.520767
 C        -1.924018         2.855845         1.654386
 C        -1.493581         1.974958         0.372189
 C        -0.521234         0.880621         1.276887
 O         0.158676        -0.157941         0.642515
 C        -1.578631         0.392425         2.192995
 C        -2.000903         1.699177         2.840006
 C        -0.858287         2.705156         2.688176
 C         0.290772         1.819423         2.093455
 H        -2.204068         4.638066         2.080819
 H        -2.470164         1.508304         0.124993
 H        -1.098903         2.658558        -0.350629
 H         1.035033         0.201468         0.390193
 H        -2.272291        -0.235623         1.654921
 H        -1.131091        -0.314400         2.954667
 H        -2.662522         1.650619         3.741828
 H        -0.713246         3.629499         3.294163
 H         0.902585         2.550052         1.448869
 H         0.963660         1.204757         2.740779
