19
Iteration:    58charge 0 multiplicity 1
 O        -2.806637         3.838723         1.501421
 C        -1.853002         2.790318         1.742464
 C        -1.382368         2.015600         0.500982
 C        -0.579230         0.922548         1.293752
 O         0.143117        -0.017683         0.502032
 C        -1.629506         0.361742         2.269699
 C        -2.026748         1.800243         2.756343
 C        -0.727554         2.724105         2.758110
 C         0.375201         1.922826         2.102390
 H        -3.672331         3.379143         1.347070
 H        -2.196160         1.652855        -0.140671
 H        -0.614113         2.519370        -0.134617
 H        -0.505686        -0.517472        -0.094075
 H        -2.440830        -0.154708         1.791064
 H        -1.073294        -0.298199         2.995801
 H        -2.736746         1.808294         3.591010
 H        -0.611937         3.592892         3.420285
 H         0.963114         2.433151         1.364180
 H         1.065054         1.407140         2.835495
