19
Iteration:  4366
 O        -2.805153         3.794814         1.425556
 C        -1.908678         2.645304         1.652203
 C        -1.359511         1.903289         0.456576
 C        -0.584413         0.973560         1.271044
 O        -0.247383        -0.121320         0.448628
 C        -1.393550         0.518858         2.543468
 C        -1.850975         1.871188         2.991682
 C        -0.728968         2.805774         2.675197
 C         0.403772         1.982022         1.918153
 H        -3.670212         3.480822         1.033722
 H        -2.146104         1.359540        -0.075595
 H        -0.842070         2.615180        -0.231086
 H         0.139039        -0.828090         0.876746
 H        -2.048248        -0.297516         2.275123
 H        -0.707980         0.167323         3.390483
 H        -2.569556         2.184096         3.791179
 H        -0.649387         3.689583         3.306887
 H         0.954089         2.422697         1.094987
 H         1.115516         1.433205         2.557127
