19
Iteration:  3950charge 0 multiplicity 1
 O        -2.851044         3.836296         1.452180
 C        -1.810715         2.869672         1.659639
 C        -1.437088         1.999096         0.510379
 C        -0.530988         0.907446         1.226864
 O         0.049765        -0.198060         0.576958
 C        -1.505098         0.421197         2.333939
 C        -2.012106         1.750194         2.800245
 C        -0.821395         2.770075         2.680819
 C         0.422546         1.999259         2.003264
 H        -3.127215         4.090886         2.380700
 H        -2.254114         1.618212        -0.071151
 H        -0.852067         2.621252        -0.208187
 H        -0.162212        -0.936065         1.074382
 H        -2.198412        -0.188817         1.779934
 H        -0.895675        -0.021985         3.060621
 H        -2.786030         2.129004         3.527559
 H        -0.648835         3.431049         3.509191
 H         0.883817         2.452215         1.161788
 H         0.874935         1.388839         2.838560
