19
Iteration:  2595
 O        -2.725696         3.926155         1.466496
 C        -1.887260         2.756667         1.662846
 C        -1.500274         1.989728         0.462767
 C        -0.548730         0.922039         1.266100
 O         0.222263        -0.078751         0.502832
 C        -1.645875         0.418183         2.353620
 C        -1.983622         1.813786         2.825224
 C        -0.763037         2.747823         2.673321
 C         0.336700         1.855763         2.114048
 H        -3.675437         3.731965         1.625979
 H        -2.484579         1.632858         0.003638
 H        -0.926258         2.575787        -0.291920
 H        -0.090784        -0.938166         0.670109
 H        -2.411330         0.038102         1.641207
 H        -1.404133        -0.360101         3.180278
 H        -2.773243         1.893230         3.575543
 H        -0.561342         3.590194         3.372992
 H         1.171354         2.442842         1.581038
 H         0.804226         1.195194         2.942606
