19
Iteration:  2090charge 0 multiplicity 1
 O        -2.704484         3.955610         1.491934
 C        -1.902032         2.771264         1.673172
 C        -1.421251         1.849328         0.487274
 C        -0.551260         0.889177         1.282037
 O         0.177697        -0.034176         0.474959
 C        -1.547661         0.423006         2.387672
 C        -2.051326         1.839781         2.813055
 C        -0.835273         2.668126         2.656906
 C         0.339590         1.907856         2.119021
 H        -3.603814         3.651800         1.236719
 H        -2.272890         1.414445         0.153167
 H        -0.978188         2.371045        -0.293210
 H        -0.394733        -0.249249        -0.211461
 H        -2.336028        -0.137890         1.899090
 H        -1.135803        -0.161891         3.241121
 H        -2.625176         1.905199         3.764971
 H        -0.675136         3.495274         3.369313
 H         0.871561         2.669450         1.490949
 H         0.896675         1.521011         2.960073
