19
Iteration:  3872charge 0 multiplicity 1
 O        -2.796643         3.869744         1.495074
 C        -1.917106         2.786937         1.626871
 C        -1.442956         1.860451         0.425723
 C        -0.562603         0.930030         1.264369
 O         0.046397        -0.000893         0.421073
 C        -1.538511         0.490631         2.429752
 C        -2.037011         1.822899         2.888071
 C        -0.787166         2.709786         2.699665
 C         0.370603         1.829599         2.132121
 H        -2.506162         4.476793         0.754157
 H        -2.194331         1.208685         0.021828
 H        -1.030150         2.196077        -0.515276
 H         0.933968        -0.293592         0.776049
 H        -2.347303        -0.173731         2.106115
 H        -1.002778         0.015201         3.192702
 H        -2.724549         1.954741         3.682780
 H        -0.592830         3.474285         3.472548
 H         1.109308         2.339336         1.558061
 H         0.999367         1.141355         2.802008
