19
Iteration:  2620
 O        -2.632675         3.998114         1.633927
 C        -1.949643         2.698294         1.611622
 C        -1.400456         1.832223         0.458439
 C        -0.587604         0.966363         1.294803
 O         0.171491        -0.031047         0.548518
 C        -1.593768         0.399529         2.265172
 C        -2.006784         1.828073         2.837913
 C        -0.879011         2.731294         2.590199
 C         0.326557         1.887652         2.084623
 H        -3.455807         4.032677         1.161805
 H        -2.278958         1.291409         0.003028
 H        -0.795557         2.416147        -0.478616
 H        -0.086515        -0.899083         0.927843
 H        -2.435434         0.024642         1.689330
 H        -1.063230        -0.296070         2.948967
 H        -2.658633         1.910395         3.742896
 H        -0.945577         3.517263         3.314765
 H         0.997630         2.343793         1.283316
 H         0.874974         1.474532         2.889040
