19
Iteration:  1672charge 0 multiplicity 1
 O        -2.736094         3.776713         1.367083
 C        -1.864986         2.677908         1.702890
 C        -1.290450         2.079610         0.480102
 C        -0.599314         0.962737         1.272958
 O         0.048037         0.074232         0.445499
 C        -1.676028         0.370611         2.415281
 C        -2.017391         1.817152         2.805255
 C        -0.743327         2.686151         2.885988
 C         0.316886         1.802585         2.141840
 H        -2.426656         4.041084         0.503072
 H        -2.030443         1.542569        -0.137110
 H        -0.621893         2.629551        -0.187397
 H        -0.637152        -0.126665        -0.110365
 H        -2.427080        -0.342372         2.168533
 H        -1.020068        -0.008820         3.204057
 H        -2.867063         2.190094         3.411131
 H        -0.667781         3.526223         3.585834
 H         0.957898         2.375946         1.461864
 H         0.919315         1.195910         2.762334
