19
Iteration:  2569charge 0 multiplicity 1
 O        -2.787014         3.819061         1.402138
 C        -1.819595         2.766820         1.646938
 C        -1.302691         1.969161         0.397080
 C        -0.627760         0.947667         1.261767
 O         0.069665         0.015653         0.541498
 C        -1.610152         0.490866         2.382654
 C        -2.022069         1.833748         2.818342
 C        -0.712016         2.691020         2.771744
 C         0.286864         1.841081         2.100742
 H        -3.641107         3.598229         1.847023
 H        -2.131503         1.597832        -0.179324
 H        -0.515705         2.477554        -0.057768
 H        -0.427914        -0.695300         0.238908
 H        -2.246801        -0.391856         1.982847
 H        -1.021577        -0.016927         3.231767
 H        -2.738673         1.872842         3.632746
 H        -0.368605         3.454969         3.431671
 H         0.971291         2.513141         1.601246
 H         0.963975         1.159421         2.725874
