19
Iteration:   744charge 0 multiplicity 1
 O        -2.712210         3.917260         1.501162
 C        -1.915043         2.822564         1.692938
 C        -1.248474         2.112491         0.531122
 C        -0.497397         1.000812         1.231455
 O         0.145769        -0.056897         0.603601
 C        -1.676327         0.395603         2.140913
 C        -2.142765         1.710026         2.646183
 C        -0.805763         2.658898         2.740316
 C         0.312414         1.766986         2.250181
 H        -3.493424         3.895350         2.036703
 H        -2.118022         1.640172        -0.080689
 H        -0.552548         2.755139        -0.164063
 H         0.379289         0.072288        -0.283084
 H        -2.400765        -0.180135         1.577653
 H        -1.347553        -0.421825         2.840263
 H        -3.052698         1.773747         3.282744
 H        -0.871026         3.184860         3.696776
 H         1.193322         2.323723         1.803952
 H         0.688704         0.989129         2.928733
