19
Iteration:  2050charge 0 multiplicity 1
 O        -2.616377         3.869550         1.369672
 C        -1.992632         2.739062         1.658899
 C        -1.461023         1.959691         0.524627
 C        -0.519938         0.909286         1.310407
 O         0.075951        -0.000485         0.477197
 C        -1.508554         0.366949         2.386584
 C        -2.021083         1.749655         2.924970
 C        -0.845120         2.732634         2.722806
 C         0.340423         1.956257         2.101749
 H        -3.400119         3.626049         0.841922
 H        -2.283092         1.345678        -0.176985
 H        -0.767115         2.670293        -0.148254
 H        -0.347535         0.105825        -0.474474
 H        -2.439112        -0.149743         2.011389
 H        -1.020837        -0.178893         3.212553
 H        -2.514570         1.794740         3.935045
 H        -0.671148         3.541394         3.436618
 H         1.081674         2.508189         1.482772
 H         0.786152         1.272418         2.882141
