19
Iteration:  2807
 O        -2.723742         3.975669         1.367729
 C        -1.945403         2.759932         1.730838
 C        -1.434872         1.958494         0.480284
 C        -0.646162         0.910613         1.252945
 O         0.183584         0.002382         0.421284
 C        -1.540996         0.442698         2.370586
 C        -2.032318         1.775322         2.870474
 C        -0.736866         2.736341         2.720416
 C         0.280250         1.760990         2.151370
 H        -3.502107         3.506706         1.019052
 H        -2.220335         1.568526        -0.115457
 H        -0.822974         2.564214        -0.181554
 H         0.505338        -0.745198         0.874432
 H        -2.460825        -0.017762         2.090522
 H        -0.916740         0.107835         3.214265
 H        -2.742769         1.793935         3.698110
 H        -0.647255         3.531886         3.494906
 H         1.144395         2.347040         1.608309
 H         0.660509         0.972728         2.851604
