19
Iteration:  4481
 O        -2.778420         3.801834         1.474700
 C        -1.937245         2.668899         1.703749
 C        -1.484986         1.844549         0.490815
 C        -0.548909         0.947801         1.248421
 O        -0.160171        -0.091266         0.443296
 C        -1.427636         0.521626         2.497548
 C        -1.930558         1.816180         2.899283
 C        -0.702417         2.806410         2.608444
 C         0.412556         2.009504         2.026963
 H        -2.537602         4.080351         0.543169
 H        -2.289604         1.221151         0.083482
 H        -1.110681         2.413150        -0.379783
 H         0.449961        -0.510766         0.980914
 H        -2.326572        -0.091976         2.159513
 H        -0.857440         0.026087         3.285677
 H        -2.661908         1.815176         3.768510
 H        -0.696585         3.650229         3.291747
 H         1.062449         2.540524         1.299033
 H         1.080336         1.507595         2.686271
