19
Iteration:  1608charge 0 multiplicity 1
 O        -2.719584         3.900731         1.669126
 C        -1.877373         2.817831         1.667522
 C        -1.413358         2.038165         0.347701
 C        -0.605547         0.890829         1.238728
 O         0.239336        -0.069342         0.788585
 C        -1.660159         0.421798         2.230374
 C        -2.038938         1.703434         2.718629
 C        -0.804403         2.663548         2.622125
 C         0.217617         1.887854         1.937765
 H        -2.041346         4.572144         1.896317
 H        -2.326862         1.718495        -0.210104
 H        -0.788976         2.599622        -0.296528
 H        -0.176828        -0.898226         0.540934
 H        -2.429952        -0.183723         1.716394
 H        -1.175728        -0.089350         3.190141
 H        -2.827944         1.938867         3.450229
 H        -0.373488         3.459024         3.265842
 H         0.959451         2.514563         1.337237
 H         0.726918         1.384324         2.749779
