19
Iteration:  1892
 O        -2.727809         3.946490         1.621372
 C        -1.925247         2.756773         1.608519
 C        -1.429096         1.974724         0.436041
 C        -0.572700         0.890932         1.341578
 O         0.124327        -0.133268         0.597114
 C        -1.636344         0.400035         2.326475
 C        -2.005503         1.793344         2.812964
 C        -0.786727         2.682011         2.626748
 C         0.348772         1.931097         2.020916
 H        -3.206886         3.951692         0.791920
 H        -2.156091         1.332360        -0.108527
 H        -0.749958         2.499094        -0.209958
 H         0.703808         0.420874         0.007519
 H        -2.398114        -0.151573         1.870149
 H        -1.200184        -0.245236         3.116685
 H        -2.865308         1.968987         3.505048
 H        -0.650231         3.431997         3.459319
 H         0.979720         2.407077         1.259273
 H         0.955559         1.623812         2.855775
