19
Iteration:  2825
 O        -2.713206         3.831440         1.441949
 C        -1.899420         2.780231         1.568582
 C        -1.370213         1.951549         0.420294
 C        -0.557219         0.983597         1.258618
 O         0.053045        -0.004665         0.445199
 C        -1.643062         0.418349         2.326921
 C        -1.965773         1.805871         2.928585
 C        -0.800312         2.709097         2.751587
 C         0.349960         1.834869         2.184128
 H        -3.663330         3.644365         1.338434
 H        -2.205423         1.434261        -0.141113
 H        -0.756451         2.659020        -0.137526
 H         0.505673        -0.580901         1.018234
 H        -2.538210        -0.048234         1.816023
 H        -1.152684        -0.324255         3.057979
 H        -2.614052         2.210179         3.680993
 H        -0.569094         3.604670         3.358206
 H         1.090102         2.420837         1.585116
 H         0.775944         1.352838         3.066894
