19
Iteration:  2219charge 0 multiplicity 1
 O        -2.724442         4.030832         1.459765
 C        -1.957754         2.782276         1.644295
 C        -1.530565         1.835896         0.532913
 C        -0.572606         0.945389         1.293299
 O         0.215781        -0.011798         0.556886
 C        -1.541716         0.363356         2.355452
 C        -2.031427         1.744813         2.833663
 C        -0.731249         2.756196         2.690963
 C         0.345528         1.872847         2.036446
 H        -3.501488         3.655765         1.029411
 H        -2.495677         1.136458         0.353682
 H        -1.100949         2.239080        -0.359141
 H        -0.136800        -0.141588        -0.417741
 H        -2.389257        -0.214085         2.021166
 H        -1.150779        -0.188238         3.210521
 H        -2.685983         1.947729         3.742076
 H        -0.484846         3.378032         3.562833
 H         1.024926         2.403696         1.450994
 H         0.982284         1.282265         2.609669
