19
Iteration:  2935charge 0 multiplicity 1
 O        -2.647411         3.955454         1.409208
 C        -1.869819         2.743573         1.695384
 C        -1.354344         1.862207         0.554211
 C        -0.525985         0.867596         1.280545
 O         0.073066         0.040680         0.317413
 C        -1.612300         0.364685         2.349078
 C        -2.073757         1.843418         2.804955
 C        -0.872417         2.703018         2.818767
 C         0.325973         1.890051         2.162344
 H        -3.575977         3.842036         1.061966
 H        -2.276005         1.256637         0.084500
 H        -0.842609         2.394265        -0.294233
 H         0.599434        -0.584935         0.909199
 H        -2.365708        -0.313285         1.934968
 H        -1.217831        -0.108839         3.257434
 H        -2.824240         2.103111         3.565947
 H        -0.724718         3.492325         3.573652
 H         0.870969         2.591744         1.520741
 H         1.018170         1.502061         2.877354
