19
Iteration:  2557
 O        -2.786329         3.847724         1.402089
 C        -1.894618         2.782184         1.603325
 C        -1.327089         2.033175         0.447560
 C        -0.567032         0.924471         1.332586
 O         0.058777        -0.050504         0.522691
 C        -1.543121         0.379873         2.415047
 C        -1.975808         1.803412         2.817956
 C        -0.779270         2.712065         2.726588
 C         0.383484         1.874941         2.121398
 H        -3.577268         3.607275         1.860017
 H        -2.051495         1.738626        -0.284752
 H        -0.607075         2.511837        -0.259172
 H        -0.749230        -0.388968        -0.002458
 H        -2.513568         0.048400         1.895088
 H        -1.173840        -0.287452         3.219916
 H        -2.811637         2.100364         3.492520
 H        -0.693762         3.523126         3.429800
 H         1.072170         2.375057         1.456758
 H         0.872197         1.297162         2.931405
