19
Iteration:  4005
 O        -2.756527         3.920553         1.432321
 C        -1.953482         2.787025         1.688880
 C        -1.477255         1.902581         0.497703
 C        -0.609314         0.844425         1.256459
 O         0.152169         0.017072         0.434662
 C        -1.562174         0.407823         2.453399
 C        -1.887057         1.770683         2.893997
 C        -0.738894         2.825286         2.611381
 C         0.243803         1.850613         2.089162
 H        -3.451358         3.602332         0.803226
 H        -2.355578         1.508880         0.005206
 H        -0.895751         2.596316        -0.145534
 H         0.312852        -0.882246         0.856361
 H        -2.426227        -0.224256         2.198166
 H        -1.147759        -0.108298         3.290398
 H        -2.423521         2.078843         3.827531
 H        -0.406083         3.647867         3.240858
 H         1.023121         2.067577         1.354547
 H         0.928743         1.459730         2.909761
