19
Iteration:  2960charge 0 multiplicity 1
 O        -2.679379         3.893848         1.493772
 C        -1.902488         2.694396         1.666322
 C        -1.383358         2.053716         0.362206
 C        -0.595190         0.973004         1.239939
 O         0.014916        -0.015298         0.543291
 C        -1.487558         0.406693         2.308044
 C        -2.025573         1.788801         2.850461
 C        -0.817079         2.721201         2.685169
 C         0.295767         1.796320         2.149380
 H        -3.626387         3.740782         1.231333
 H        -2.003202         1.618283        -0.491348
 H        -0.674946         2.763882         0.031003
 H         0.475146        -0.510370         1.193215
 H        -2.132441        -0.239062         1.683053
 H        -0.932830        -0.309824         3.079501
 H        -2.794657         1.971190         3.623689
 H        -0.835681         3.559959         3.361286
 H         1.206374         2.353873         1.634634
 H         0.610204         1.191248         3.028674
