19
Iteration:  1201charge 0 multiplicity 1
 O        -2.581200         4.030168         1.614527
 C        -2.019329         2.749654         1.693509
 C        -1.496745         1.942469         0.510424
 C        -0.557076         0.925362         1.296628
 O         0.224816        -0.095169         0.651224
 C        -1.592487         0.365359         2.233069
 C        -2.065514         1.712042         2.760837
 C        -0.822925         2.723272         2.613868
 C         0.366887         1.921060         2.017214
 H        -3.509062         3.870209         1.272056
 H        -2.402171         1.387793        -0.067590
 H        -0.971251         2.469013        -0.314256
 H        -0.104219        -0.100516        -0.218031
 H        -2.359017        -0.193050         1.706352
 H        -1.233959        -0.194468         3.120997
 H        -2.982427         1.730548         3.291990
 H        -0.717654         3.575810         3.282261
 H         1.110512         2.453363         1.383481
 H         0.808280         1.376226         2.907995
