19
Iteration:  1309
 O        -2.609071         3.915243         1.398254
 C        -1.892796         2.756779         1.709395
 C        -1.464937         1.930299         0.475516
 C        -0.623375         0.918447         1.254937
 O         0.085020        -0.002645         0.479593
 C        -1.591332         0.397103         2.367906
 C        -2.070493         1.726152         2.793472
 C        -0.797244         2.661940         2.709148
 C         0.290920         1.908688         2.075642
 H        -2.799692         4.211968         2.288924
 H        -2.293533         1.610171        -0.045307
 H        -0.878331         2.686010        -0.018392
 H         0.966375         0.150426         0.658003
 H        -2.421934        -0.304488         2.080267
 H        -0.999581        -0.154985         3.108436
 H        -2.883549         1.943213         3.461643
 H        -0.689488         3.262234         3.645057
 H         0.947419         2.567874         1.480529
 H         0.900786         1.232450         2.759682
