19
Iteration:  2107charge 0 multiplicity 1
 O        -2.698903         3.911261         1.612350
 C        -1.962321         2.718606         1.605737
 C        -1.461152         1.947283         0.454046
 C        -0.544148         0.910426         1.327428
 O         0.245897        -0.040486         0.586265
 C        -1.711761         0.372728         2.306500
 C        -1.998907         1.794060         2.863782
 C        -0.790727         2.824727         2.587068
 C         0.366859         1.911503         2.027165
 H        -3.637840         3.682641         1.538313
 H        -2.102891         1.294173        -0.322001
 H        -0.692798         2.552512        -0.163412
 H        -0.301066        -0.562233         0.071561
 H        -2.597694        -0.164914         1.864192
 H        -1.286511        -0.318205         3.039500
 H        -2.772961         2.021941         3.579447
 H        -0.610458         3.667682         3.246197
 H         1.105511         2.181736         1.293875
 H         1.056199         1.369402         2.732974
