19
Iteration:  3256charge 0 multiplicity 1
 O        -2.685819         3.912058         1.482913
 C        -2.001327         2.717882         1.674101
 C        -1.396591         2.064729         0.461736
 C        -0.495468         0.979792         1.232147
 O         0.028394        -0.149918         0.586290
 C        -1.556715         0.403054         2.299376
 C        -1.978311         1.717491         2.841683
 C        -0.824591         2.707186         2.635310
 C         0.287123         1.921265         2.107365
 H        -3.636593         3.929069         1.654114
 H        -2.122229         1.477480        -0.183896
 H        -0.800464         2.780393        -0.081183
 H         1.016818        -0.091534         0.271441
 H        -2.325404        -0.206828         1.812085
 H        -1.072067        -0.162349         3.064310
 H        -2.728200         1.899463         3.645684
 H        -0.588430         3.525395         3.326869
 H         1.132757         2.510568         1.576875
 H         0.904231         1.405386         2.895386
