19
Iteration:  1215charge 0 multiplicity 1
 O        -2.679990         3.977152         1.726741
 C        -1.897122         2.771290         1.597296
 C        -1.382565         1.948897         0.420979
 C        -0.554094         0.924773         1.269228
 O         0.195541        -0.104713         0.673562
 C        -1.657312         0.342468         2.235565
 C        -2.075482         1.732014         2.781837
 C        -0.813289         2.733243         2.606133
 C         0.303526         1.964698         2.044029
 H        -3.322379         3.992524         0.983828
 H        -2.253336         1.414256        -0.176318
 H        -0.707525         2.588640        -0.170161
 H        -0.352849        -0.695712         0.010206
 H        -2.377766        -0.234349         1.652915
 H        -1.199968        -0.420810         2.940033
 H        -2.615767         1.993127         3.714499
 H        -0.687937         3.584894         3.311339
 H         0.832580         2.590084         1.273984
 H         1.035898         1.623878         2.720621
