19
Iteration:   720
 O        -2.681693         3.876786         1.612774
 C        -1.904609         2.787119         1.585497
 C        -1.295002         2.204928         0.327820
 C        -0.580631         0.956305         1.218492
 O         0.267804        -0.160581         0.685227
 C        -1.710463         0.467868         2.086450
 C        -2.047002         1.765165         2.739022
 C        -0.890084         2.561477         2.822215
 C         0.182208         1.839777         2.221230
 H        -2.955885         4.023197         2.523945
 H        -1.897114         1.537026        -0.408998
 H        -0.487568         2.801180        -0.226145
 H         0.521907         0.107833        -0.267242
 H        -2.510111        -0.081160         1.489044
 H        -1.348003        -0.397082         2.680821
 H        -2.952301         1.808030         3.411111
 H        -0.817122         3.489737         3.405267
 H         1.029252         2.469105         1.732035
 H         0.664603         1.189408         3.000895
