19
Iteration:  3102charge 0 multiplicity 1
 O        -2.723723         3.912001         1.553406
 C        -1.930568         2.752885         1.700657
 C        -1.368171         2.054629         0.446597
 C        -0.611995         0.907734         1.227689
 O         0.236324        -0.117882         0.513988
 C        -1.664794         0.421760         2.228970
 C        -2.051714         1.834656         2.865222
 C        -0.816392         2.752441         2.663665
 C         0.321087         1.833773         2.115969
 H        -3.519872         3.574980         1.054704
 H        -2.236907         1.522813        -0.122208
 H        -0.679428         2.595238        -0.169684
 H         0.532118        -0.609000         1.258407
 H        -2.404168         0.048029         1.562903
 H        -1.304470        -0.312701         2.869198
 H        -2.579086         1.940137         3.789780
 H        -0.518777         3.480190         3.427352
 H         0.947190         2.507474         1.490972
 H         0.711795         1.258425         2.884113
