19
Iteration:  3069
 O        -2.625831         3.906066         1.472789
 C        -1.869885         2.807690         1.586328
 C        -1.347326         1.921870         0.457936
 C        -0.578719         0.937840         1.371055
 O        -0.010290         0.038912         0.418645
 C        -1.589309         0.365625         2.378842
 C        -2.100225         1.729987         2.782396
 C        -0.827393         2.661089         2.781620
 C         0.328444         1.915113         2.162795
 H        -3.327560         3.852241         0.795741
 H        -2.177078         1.288622        -0.086457
 H        -0.774946         2.264183        -0.385333
 H         0.930092        -0.295533         0.666677
 H        -2.225895        -0.250455         1.780017
 H        -1.138808        -0.306095         3.059679
 H        -2.769950         2.028250         3.575088
 H        -0.793863         3.394260         3.603709
 H         0.934990         2.771220         1.794774
 H         1.006135         1.469850         2.791117
