19
Iteration:   487charge 0 multiplicity 1
 O        -2.678131         3.939779         1.526425
 C        -1.870559         2.768459         1.715872
 C        -1.276554         2.026351         0.478971
 C        -0.521232         0.926363         1.229280
 O         0.226916        -0.108940         0.521375
 C        -1.651529         0.414097         2.143735
 C        -2.173716         1.748351         2.678221
 C        -0.901819         2.655328         2.794981
 C         0.250261         1.858088         2.261049
 H        -3.397291         4.089744         2.156666
 H        -2.139448         1.806491        -0.209543
 H        -0.506079         2.676942        -0.118539
 H         0.740164         0.389145        -0.075901
 H        -2.511692         0.069479         1.503607
 H        -1.555307        -0.388277         2.883726
 H        -2.981874         1.902721         3.376668
 H        -0.877138         3.267455         3.676317
 H         1.010146         2.358344         1.649218
 H         0.861890         1.167276         2.878735
