19
Iteration:  3119charge 0 multiplicity 1
 O        -2.797469         4.024483         1.542276
 C        -1.985384         2.813067         1.624029
 C        -1.388532         1.975416         0.407990
 C        -0.491325         0.916271         1.236734
 O         0.180312        -0.082369         0.564264
 C        -1.636697         0.409867         2.223083
 C        -1.910523         1.708693         2.844054
 C        -0.797731         2.739316         2.640038
 C         0.314407         1.809201         2.155835
 H        -3.779207         3.866711         1.617771
 H        -1.971977         1.564034        -0.344039
 H        -0.780495         2.801741        -0.067534
 H         0.251537        -0.854281         1.041695
 H        -2.636230        -0.032002         1.869372
 H        -1.104499        -0.374328         2.969596
 H        -2.722102         1.871480         3.588994
 H        -0.776558         3.622954         3.282729
 H         1.227163         2.232246         1.710469
 H         0.598372         1.174787         3.149346
