19
Iteration:   230
 O        -2.526331         4.158107         1.575779
 C        -1.994856         2.729046         1.665241
 C        -1.504008         1.915375         0.497393
 C        -0.536596         0.953572         1.289741
 O         0.262103         0.030334         0.473577
 C        -1.601520         0.327554         2.192787
 C        -2.099824         1.634369         2.814662
 C        -0.929045         2.604734         2.700232
 C         0.270469         1.885230         2.141217
 H        -3.443196         4.082645         1.207049
 H        -2.135232         1.344690        -0.269006
 H        -0.840924         2.520916        -0.146829
 H         0.444936        -0.705275         1.040618
 H        -2.282807        -0.157628         1.435521
 H        -1.324347        -0.395596         2.971246
 H        -2.797458         1.673850         3.638993
 H        -0.780280         3.462834         3.356522
 H         0.930757         2.614066         1.602276
 H         0.885606         1.359181         2.869825
