19
Iteration:  4396charge 0 multiplicity 1
 O        -2.931952         3.777605         1.389758
 C        -1.838143         2.778535         1.672888
 C        -1.483182         1.854970         0.534536
 C        -0.620753         0.899362         1.245713
 O        -0.079317        -0.135363         0.424138
 C        -1.521955         0.450606         2.471912
 C        -1.877907         1.949772         2.946865
 C        -0.568032         2.862422         2.578063
 C         0.422068         1.940843         2.016444
 H        -3.567348         3.694955         2.097446
 H        -2.490959         1.483463         0.231949
 H        -0.997782         2.379280        -0.360237
 H         0.664111        -0.699836         0.894733
 H        -2.208949        -0.362875         2.116886
 H        -0.967716         0.027088         3.292691
 H        -2.416427         2.460079         3.821225
 H        -0.457131         3.684372         3.292049
 H         1.257855         2.264137         1.238176
 H         0.885884         1.357115         2.850931
