19
Iteration:   319
 O        -2.824026         3.839150         1.591150
 C        -1.793058         2.862501         1.668276
 C        -1.222045         2.115620         0.353783
 C        -0.492341         1.021204         1.197283
 O         0.066591        -0.194044         0.588934
 C        -1.700640         0.483802         2.061500
 C        -2.041114         1.784393         2.785018
 C        -0.869537         2.665455         2.813590
 C         0.341446         1.797734         2.280071
 H        -3.611156         3.372730         1.911383
 H        -2.033444         1.567076        -0.163857
 H        -0.583204         2.716316        -0.342627
 H         0.867397         0.134163         0.239779
 H        -2.455521         0.054317         1.411721
 H        -1.270875        -0.317113         2.701698
 H        -2.964047         1.919545         3.378232
 H        -0.786381         3.430088         3.593338
 H         1.051237         2.377366         1.721616
 H         0.906642         1.056961         2.868979
