19
Iteration:  2780charge 0 multiplicity 1
 O        -2.605053         3.951599         1.515601
 C        -1.914026         2.731869         1.628530
 C        -1.450214         1.850226         0.421068
 C        -0.550956         0.929751         1.353577
 O         0.091069         0.028686         0.455017
 C        -1.595932         0.337763         2.364203
 C        -2.064958         1.790486         2.804513
 C        -0.796153         2.693804         2.702722
 C         0.324113         1.986966         2.122302
 H        -3.271711         3.771641         0.841594
 H        -2.324866         1.252303         0.032061
 H        -0.857376         2.367832        -0.362749
 H         0.295400        -0.827473         0.819690
 H        -2.441679        -0.125946         1.790060
 H        -1.233150        -0.225092         3.260925
 H        -2.806738         2.064417         3.581635
 H        -0.721763         3.386975         3.510891
 H         0.838874         2.692203         1.501915
 H         1.006598         1.517903         2.840347
