19
Iteration:  3693
 O        -2.892686         3.812926         1.533172
 C        -2.004980         2.754877         1.633965
 C        -1.330302         1.952861         0.503259
 C        -0.550150         0.878769         1.348426
 O         0.102640        -0.114484         0.530234
 C        -1.637071         0.481066         2.402880
 C        -1.979219         1.833223         2.795010
 C        -0.746075         2.818159         2.546094
 C         0.388453         1.778357         2.048609
 H        -2.284794         4.507851         1.836836
 H        -2.133918         1.687652        -0.290262
 H        -0.649444         2.685725        -0.085605
 H         0.635421         0.287853        -0.093007
 H        -2.538996        -0.021773         2.035058
 H        -1.300978        -0.071295         3.229291
 H        -2.551174         1.877395         3.678851
 H        -0.647654         3.715608         3.163440
 H         1.087901         2.199636         1.256305
 H         0.999712         1.377359         3.026737
