19
Iteration:   509
 O        -2.626996         4.009896         1.287845
 C        -1.905078         2.806265         1.716379
 C        -1.362742         2.075946         0.511109
 C        -0.510818         0.986113         1.292378
 O         0.133892         0.065199         0.501597
 C        -1.663759         0.252974         2.139925
 C        -2.110321         1.655276         2.811059
 C        -0.907414         2.555611         2.833112
 C         0.296372         1.779526         2.296511
 H        -3.223369         4.338156         2.008590
 H        -2.038752         1.556972        -0.247366
 H        -0.784224         2.938649        -0.030630
 H         0.761440         0.598046        -0.121819
 H        -2.441208        -0.403038         1.609070
 H        -1.292882        -0.438693         2.936603
 H        -2.723156         1.598364         3.719663
 H        -0.704040         3.350854         3.538431
 H         1.178870         2.155976         1.739779
 H         0.797367         1.166838         3.114308
