19
Iteration:  4327
 O        -2.772818         3.956589         1.625090
 C        -1.980398         2.798383         1.654841
 C        -1.630709         1.718912         0.457316
 C        -0.587078         0.871998         1.276616
 O         0.089138        -0.104158         0.522405
 C        -1.493544         0.454392         2.446739
 C        -1.878872         1.930397         2.893437
 C        -0.681574         2.840672         2.569162
 C         0.356927         1.887534         1.870362
 H        -3.169765         3.950979         0.754219
 H        -2.538367         1.084934         0.380929
 H        -1.399694         1.998861        -0.557800
 H         0.598265        -0.707545         1.167191
 H        -2.356414        -0.168220         2.108744
 H        -0.903758        -0.180188         3.082474
 H        -2.440297         2.215780         3.731865
 H        -0.454898         3.661661         3.254396
 H         1.010466         2.501941         1.195078
 H         1.010017         1.384201         2.613793
