19
Iteration:   251
 O        -2.472392         3.985940         1.524403
 C        -1.898238         2.724320         1.720177
 C        -1.459320         1.925566         0.479436
 C        -0.517832         0.906871         1.209648
 O         0.229787         0.017508         0.338174
 C        -1.642057         0.366636         2.250418
 C        -2.201954         1.721043         2.785699
 C        -0.964145         2.664362         2.846837
 C         0.258208         1.916594         2.200361
 H        -3.128479         4.209381         0.868641
 H        -2.471184         1.380350         0.202061
 H        -1.178748         2.534293        -0.394026
 H         0.998214        -0.273074         0.878270
 H        -2.358675        -0.422182         1.819669
 H        -1.059841        -0.063126         3.068516
 H        -2.942648         1.849273         3.564036
 H        -0.981573         3.269815         3.745149
 H         0.886380         2.732771         1.697659
 H         0.907334         1.427242         2.941491
