19
Iteration:   328charge 0 multiplicity 1
 O        -2.776138         3.815122         1.614679
 C        -1.803476         2.828873         1.656075
 C        -1.228319         2.094974         0.374789
 C        -0.540572         1.043866         1.251322
 O         0.043128        -0.078827         0.689022
 C        -1.700308         0.443300         2.053179
 C        -2.064290         1.748893         2.647045
 C        -0.785800         2.609427         2.791037
 C         0.333691         1.818824         2.209245
 H        -3.600662         3.499514         1.994361
 H        -1.950084         1.617337        -0.336796
 H        -0.731371         2.747011        -0.323890
 H         0.744900         0.018708         0.095383
 H        -2.588266        -0.011621         1.542227
 H        -1.287153        -0.327681         2.719542
 H        -2.823208         2.071942         3.337078
 H        -0.788865         3.226090         3.661511
 H         1.114242         2.507088         1.749761
 H         0.783844         1.214242         3.025975
