19
Iteration:   156charge 0 multiplicity 1
 O        -2.773449         3.799457         1.423078
 C        -1.861580         2.764031         1.710374
 C        -1.293264         2.093542         0.524559
 C        -0.559784         0.961883         1.250984
 O         0.020780        -0.018528         0.508651
 C        -1.601536         0.366854         2.227261
 C        -1.981427         1.760874         2.870023
 C        -0.820634         2.700088         2.679785
 C         0.358784         1.849671         2.238862
 H        -3.672006         3.350786         1.431378
 H        -2.017419         1.895012        -0.253488
 H        -0.565487         2.794536         0.071929
 H        -0.028590         0.337427        -0.450790
 H        -2.357514         0.084801         1.550209
 H        -1.240694        -0.457506         2.867641
 H        -2.646762         1.981646         3.699665
 H        -0.480644         3.469106         3.402637
 H         1.190757         2.288004         1.777342
 H         0.650684         1.197242         3.086775
