19
Iteration:  4461charge 0 multiplicity 1
 O        -2.829362         3.920560         1.461683
 C        -1.900508         2.771470         1.655702
 C        -1.624521         1.862541         0.524423
 C        -0.515977         0.935079         1.292619
 O        -0.019796        -0.192832         0.506230
 C        -1.369904         0.410726         2.451928
 C        -1.961959         1.884081         2.889827
 C        -0.802284         2.702114         2.693974
 C         0.340942         1.983262         1.887809
 H        -2.125361         4.590466         1.221713
 H        -2.540567         1.489752         0.043827
 H        -0.922462         2.187720        -0.316986
 H         0.656483        -0.718794         1.031795
 H        -1.983365        -0.465750         2.074378
 H        -0.659647         0.107884         3.192983
 H        -2.633748         2.092947         3.763325
 H        -0.496585         3.569343         3.259801
 H         0.809104         2.673680         1.066607
 H         1.151045         1.634726         2.529418
