19
Iteration:  2558charge 0 multiplicity 1
 O        -2.789106         3.846875         1.401165
 C        -1.890155         2.778443         1.602913
 C        -1.317949         2.031074         0.434552
 C        -0.580804         0.923239         1.332791
 O         0.059089        -0.042891         0.523416
 C        -1.538637         0.388333         2.416398
 C        -1.980255         1.802986         2.819300
 C        -0.768018         2.707612         2.733971
 C         0.372881         1.876530         2.112980
 H        -3.580179         3.608999         1.858146
 H        -2.082720         1.745424        -0.280701
 H        -0.605223         2.484614        -0.220035
 H        -0.732948        -0.385274         0.046563
 H        -2.508210         0.014874         1.887212
 H        -1.195432        -0.284051         3.244915
 H        -2.805082         2.079394         3.488437
 H        -0.662819         3.512886         3.431072
 H         1.085377         2.404118         1.484570
 H         0.886691         1.259778         2.939781
