19
Iteration:  4230charge 0 multiplicity 1
 O        -2.858145         3.703770         1.410542
 C        -1.867452         2.828398         1.613919
 C        -1.448525         1.942535         0.481111
 C        -0.652587         0.923674         1.257345
 O        -0.051310        -0.173055         0.583243
 C        -1.442334         0.490200         2.495415
 C        -1.838626         1.887245         2.898780
 C        -0.715758         2.818399         2.625664
 C         0.377977         1.879544         1.990817
 H        -3.173216         4.115044         2.209796
 H        -2.346323         1.645875        -0.103350
 H        -0.832098         2.379562        -0.325037
 H         0.034349         0.110392        -0.360771
 H        -2.440594        -0.026459         2.457907
 H        -0.932241        -0.039994         3.249320
 H        -2.567708         2.150693         3.658018
 H        -0.482340         3.690788         3.240082
 H         1.002286         2.350923         1.154324
 H         1.007755         1.282265         2.671883
