19
Iteration:  3281
 O        -2.726728         3.843944         1.379624
 C        -1.867875         2.794562         1.692677
 C        -1.474728         1.937978         0.407490
 C        -0.593210         0.943671         1.206138
 O         0.070322        -0.046954         0.466386
 C        -1.591308         0.420694         2.282057
 C        -1.999369         1.811871         2.927490
 C        -0.749074         2.737137         2.771645
 C         0.308187         1.835721         2.244446
 H        -3.617457         3.776202         1.785262
 H        -2.243354         1.317085        -0.107799
 H        -0.813040         2.660348        -0.259937
 H         1.065420         0.204212         0.381301
 H        -2.401364        -0.044216         1.771546
 H        -1.033053        -0.142289         3.039806
 H        -2.677376         1.869940         3.775943
 H        -0.574532         3.706246         3.259662
 H         1.177979         2.403144         1.698889
 H         0.898874         1.117869         2.840646
