19
Iteration:  3791
 O        -2.822934         3.761908         1.518122
 C        -1.856844         2.798396         1.645100
 C        -1.465514         1.949499         0.419668
 C        -0.583573         0.883505         1.233990
 O         0.081736        -0.033046         0.484373
 C        -1.575456         0.404440         2.423317
 C        -1.985420         1.847166         2.814790
 C        -0.736689         2.792785         2.598552
 C         0.278863         1.843828         2.175325
 H        -2.267551         4.555652         1.301156
 H        -2.331642         1.342976         0.080010
 H        -0.879088         2.505213        -0.321960
 H         0.989357         0.065668         0.622871
 H        -2.414354        -0.242230         2.154322
 H        -1.001724        -0.031866         3.238517
 H        -2.665485         2.144689         3.612414
 H        -0.536941         3.718095         3.091867
 H         1.146143         2.218465         1.595537
 H         0.579984         1.220670         2.962486
