19
Iteration:  3289
 O        -2.729875         3.838447         1.386221
 C        -1.869320         2.770417         1.679866
 C        -1.449862         1.956586         0.497166
 C        -0.541525         0.968303         1.262946
 O         0.085290        -0.009956         0.443049
 C        -1.669394         0.397154         2.337037
 C        -1.992606         1.805941         2.818488
 C        -0.723859         2.723700         2.742298
 C         0.314409         1.822168         2.194924
 H        -3.582884         3.649810         1.848055
 H        -2.361625         1.464655         0.068815
 H        -0.933735         2.410106        -0.318619
 H         1.038239         0.202514         0.274677
 H        -2.475619        -0.153443         1.849076
 H        -1.190963        -0.165124         3.101155
 H        -2.754047         2.059643         3.585711
 H        -0.367512         3.548874         3.383940
 H         1.023665         2.466720         1.589336
 H         0.779271         1.330004         3.059561
