19
Iteration:  1759
 O        -2.749612         3.961648         1.520343
 C        -1.936241         2.776655         1.677430
 C        -1.405424         1.973511         0.391339
 C        -0.588369         0.906048         1.262779
 O         0.112594        -0.138870         0.599999
 C        -1.596471         0.355103         2.298454
 C        -2.068851         1.745727         2.812778
 C        -0.818515         2.727321         2.649217
 C         0.315872         1.894332         2.057912
 H        -2.203389         4.639301         1.949695
 H        -2.171644         1.763237        -0.364503
 H        -0.505768         2.431533        -0.101305
 H         1.032495         0.170835         0.630055
 H        -2.303429        -0.318976         1.885657
 H        -1.098403        -0.200303         3.069738
 H        -2.875908         1.839018         3.540115
 H        -0.771503         3.430474         3.432874
 H         1.022566         2.537394         1.537220
 H         0.905829         1.393305         2.803564
