19
Iteration:  4786
 O        -2.870424         3.741831         1.670570
 C        -1.877406         2.792808         1.650610
 C        -1.392080         1.932435         0.477998
 C        -0.431621         0.899444         1.367741
 O        -0.163163        -0.216842         0.546841
 C        -1.487419         0.380959         2.363616
 C        -1.975004         1.857958         2.769171
 C        -0.719878         2.879444         2.571397
 C         0.378673         2.047293         1.939163
 H        -3.036412         4.239987         0.836706
 H        -2.116106         1.483479        -0.214579
 H        -0.692292         2.484936        -0.172150
 H         0.674403        -0.639049         0.945230
 H        -2.229997        -0.201280         1.785875
 H        -1.060134        -0.260790         3.139984
 H        -2.619865         2.165932         3.652096
 H        -0.649216         3.869011         3.120649
 H         0.873810         2.594892         1.083225
 H         1.112162         1.770416         2.786950
