19
Iteration:  1036charge 0 multiplicity 1
 O        -2.586059         3.894693         1.350779
 C        -1.855244         2.732116         1.672897
 C        -1.425709         1.961102         0.474231
 C        -0.600170         1.041987         1.298777
 O        -0.003032         0.065602         0.528418
 C        -1.536712         0.401804         2.286457
 C        -2.070802         1.761820         2.760480
 C        -0.818264         2.548790         2.840564
 C         0.345789         1.821599         2.247048
 H        -3.421939         3.554553         1.062346
 H        -2.270135         1.391270        -0.118308
 H        -0.838550         2.635775        -0.242882
 H         0.229717         0.569721        -0.251644
 H        -2.326567        -0.254138         1.853598
 H        -0.993051        -0.092314         3.077897
 H        -2.875251         1.856840         3.519988
 H        -0.643434         3.404124         3.510801
 H         0.927558         2.466792         1.627895
 H         0.850553         1.274893         3.040789
