19
Iteration:  1564
 O        -2.729455         3.811325         1.472658
 C        -1.918066         2.751085         1.632857
 C        -1.384404         1.941606         0.525509
 C        -0.522459         0.984876         1.258562
 O         0.081961        -0.023469         0.471034
 C        -1.601506         0.435210         2.315872
 C        -2.030023         1.821874         2.857089
 C        -0.752320         2.771822         2.669187
 C         0.313953         1.808060         2.225299
 H        -2.422420         4.357362         0.724683
 H        -2.163191         1.275576         0.078541
 H        -0.891239         2.536576        -0.211534
 H        -0.593073        -0.126130        -0.184679
 H        -2.460835        -0.003349         1.767739
 H        -1.172592        -0.361103         3.070898
 H        -2.735632         1.986145         3.686479
 H        -0.699230         3.554384         3.466924
 H         1.262848         2.286342         1.806548
 H         0.651446         1.115686         2.995991
