19
Iteration:  4576
 O        -2.737618         3.901594         1.503248
 C        -2.001373         2.671385         1.633439
 C        -1.517445         1.809215         0.458882
 C        -0.505618         0.963101         1.298914
 O        -0.071007        -0.178086         0.458400
 C        -1.421040         0.433997         2.535906
 C        -1.977176         1.784237         2.887244
 C        -0.832433         2.780846         2.573606
 C         0.380078         2.062935         1.935731
 H        -2.052315         4.491919         1.904702
 H        -2.329176         1.265528        -0.071430
 H        -1.045149         2.375799        -0.318923
 H         0.507185        -0.667618         1.144743
 H        -2.226722        -0.147533         2.144117
 H        -0.828145        -0.107505         3.303903
 H        -2.262043         2.269537         3.861080
 H        -0.690614         3.650209         3.213270
 H         0.649537         2.737527         1.158683
 H         1.375072         1.880122         2.490783
