19
Iteration:  1102charge 0 multiplicity 1
 O        -2.678697         3.814970         1.708165
 C        -1.809253         2.821095         1.611303
 C        -1.370761         2.068099         0.412730
 C        -0.589192         0.946658         1.213392
 O         0.100901        -0.171740         0.661651
 C        -1.676375         0.483498         2.209283
 C        -2.094195         1.758193         2.703976
 C        -0.777178         2.695203         2.667297
 C         0.276686         1.908734         2.075836
 H        -3.515824         3.548640         1.221624
 H        -2.358743         1.706830        -0.118127
 H        -0.789493         2.743481        -0.283108
 H         1.076836        -0.115394         0.909223
 H        -2.325729        -0.267726         1.750587
 H        -1.029823        -0.075348         2.884894
 H        -2.871832         2.105913         3.417159
 H        -0.548823         3.523178         3.328962
 H         1.007213         2.400108         1.443888
 H         0.759069         1.358157         2.919633
