19
Iteration:  3808charge 0 multiplicity 1
 O        -2.875278         3.782105         1.613029
 C        -1.872940         2.780706         1.556717
 C        -1.505337         1.898728         0.452878
 C        -0.529540         0.965682         1.277278
 O         0.086139        -0.138638         0.524323
 C        -1.598586         0.574224         2.323025
 C        -2.025211         1.898226         2.770916
 C        -0.727210         2.749369         2.719206
 C         0.450164         1.804143         2.108281
 H        -2.806050         4.393208         0.843332
 H        -2.399895         1.387085         0.087457
 H        -0.963472         2.351845        -0.426760
 H         0.972250        -0.123636         0.733080
 H        -2.338327         0.026873         1.712442
 H        -1.062895        -0.118787         3.086758
 H        -2.879077         2.045500         3.389051
 H        -0.613689         3.458372         3.558182
 H         1.110483         2.438171         1.483517
 H         0.978374         1.189403         2.950215
