19
Iteration:  2865
 O        -2.788502         3.982794         1.595386
 C        -1.871561         2.792424         1.629896
 C        -1.311994         1.999305         0.407495
 C        -0.514021         0.934033         1.275382
 O         0.071700        -0.186188         0.509012
 C        -1.632688         0.414284         2.318965
 C        -2.037264         1.820001         2.761778
 C        -0.846589         2.666625         2.687870
 C         0.365930         1.939109         2.103888
 H        -3.627454         3.495359         1.469831
 H        -2.078308         1.392283        -0.123065
 H        -0.619840         2.618133        -0.301708
 H         0.796868        -0.613819         1.099825
 H        -2.401984        -0.244984         1.919549
 H        -1.128038        -0.200925         2.986158
 H        -2.772573         2.080219         3.543588
 H        -0.813448         3.453304         3.413619
 H         0.935466         2.555806         1.478939
 H         1.029814         1.336564         2.728030
