19
Iteration:   603charge 0 multiplicity 1
 O        -2.757512         3.848478         1.683645
 C        -1.819414         2.793244         1.683588
 C        -1.325465         2.167994         0.358826
 C        -0.503459         0.927004         1.226367
 O         0.220275        -0.161580         0.633669
 C        -1.719095         0.483239         2.015473
 C        -2.089321         1.723173         2.689809
 C        -0.884631         2.586224         2.815400
 C         0.253995         1.846686         2.241573
 H        -2.706357         4.595754         1.099437
 H        -2.117239         1.817822        -0.271017
 H        -0.730532         2.893593        -0.203008
 H         1.013245         0.126389         0.240052
 H        -2.558492         0.030735         1.531072
 H        -1.476512        -0.321523         2.776282
 H        -3.080689         1.983774         3.112624
 H        -0.893438         3.333388         3.619000
 H         1.098771         2.362564         1.758388
 H         0.771812         1.246255         3.010165
