19
Iteration:  4825
 O        -2.937621         3.710987         1.483013
 C        -1.866146         2.791413         1.680349
 C        -1.569818         1.911351         0.494370
 C        -0.665104         0.922083         1.223261
 O         0.135935        -0.083033         0.486738
 C        -1.535025         0.486481         2.411210
 C        -1.855498         1.930233         2.943964
 C        -0.634832         2.847512         2.585404
 C         0.278705         1.814689         2.031040
 H        -2.597299         4.544845         1.095203
 H        -2.475885         1.386366         0.068222
 H        -1.114810         2.530904        -0.309547
 H         0.904328        -0.366234         1.049038
 H        -2.350137        -0.095779         1.978049
 H        -1.092121        -0.261819         3.157946
 H        -2.424219         2.075882         3.832116
 H        -0.160856         3.652270         3.153419
 H         1.107068         2.204966         1.400529
 H         0.866255         1.233413         2.730681
