19
Iteration:   904charge 0 multiplicity 1
 O        -2.674115         3.804774         1.319370
 C        -1.837873         2.807867         1.671624
 C        -1.335634         2.016428         0.478994
 C        -0.548099         1.030359         1.329673
 O         0.044565        -0.001808         0.398461
 C        -1.603280         0.360494         2.328108
 C        -2.149703         1.741394         2.751335
 C        -0.829664         2.666164         2.841040
 C         0.296108         1.796858         2.300389
 H        -2.611764         4.616960         1.796877
 H        -2.125850         1.463118        -0.032131
 H        -0.809713         2.666513        -0.202025
 H         0.567711         0.535544        -0.178193
 H        -2.347737        -0.144221         1.664367
 H        -1.153149        -0.311730         3.037364
 H        -2.918975         1.831819         3.503905
 H        -0.619355         3.283906         3.710561
 H         1.058315         2.391448         1.866266
 H         0.802111         1.179947         3.036516
