19
Iteration:  4326
 O        -2.776373         3.959136         1.627204
 C        -1.976839         2.805829         1.651619
 C        -1.638678         1.713271         0.457276
 C        -0.593406         0.880100         1.263688
 O         0.097798        -0.097912         0.529198
 C        -1.494523         0.452613         2.446122
 C        -1.888287         1.938245         2.894828
 C        -0.672286         2.829635         2.568535
 C         0.357570         1.881351         1.867692
 H        -3.165490         3.934442         0.758603
 H        -2.532453         1.078304         0.357135
 H        -1.384027         1.961284        -0.545449
 H         0.635494        -0.722418         1.172358
 H        -2.359500        -0.155923         2.141792
 H        -0.903273        -0.201236         3.092347
 H        -2.448448         2.207498         3.761819
 H        -0.416259         3.640650         3.254342
 H         0.971873         2.491695         1.215929
 H         1.010046         1.383349         2.603621
