19
Iteration:  1381
 O        -2.849074         3.829345         1.544757
 C        -1.850165         2.861376         1.598471
 C        -1.275774         2.035717         0.455427
 C        -0.623055         0.926741         1.311261
 O         0.051949        -0.063907         0.511666
 C        -1.590572         0.411894         2.353804
 C        -1.967169         1.803023         2.767814
 C        -0.789207         2.685732         2.753959
 C         0.339498         1.787036         2.166668
 H        -2.812122         4.213352         0.666933
 H        -2.079072         1.498184        -0.152096
 H        -0.361716         2.403817        -0.067578
 H        -0.183802         0.100091        -0.403629
 H        -2.452769        -0.100601         1.923038
 H        -1.119688        -0.303694         3.022954
 H        -2.888740         1.988634         3.267950
 H        -0.520104         3.373342         3.540450
 H         1.018521         2.366494         1.496757
 H         0.901761         1.473640         3.034610
