19
Iteration:  3611
 O        -2.674741         3.902308         1.599321
 C        -1.893679         2.738137         1.581349
 C        -1.436277         1.913751         0.456159
 C        -0.622714         0.886230         1.313406
 O         0.135159        -0.076035         0.522445
 C        -1.621329         0.379263         2.402405
 C        -1.955511         1.842037         2.861461
 C        -0.853816         2.762000         2.608845
 C         0.282161         1.861070         2.088482
 H        -3.288923         3.791853         0.868988
 H        -2.248300         1.418849        -0.093301
 H        -0.766606         2.472660        -0.343375
 H         0.896279         0.433393         0.085312
 H        -2.533985        -0.125711         2.048880
 H        -0.950780        -0.197178         3.110141
 H        -2.742888         2.126261         3.519782
 H        -0.601815         3.691603         3.098215
 H         0.850070         2.458163         1.271931
 H         0.908871         1.515255         2.861164
