19
Iteration:  2343
 O        -2.625378         3.961612         1.491995
 C        -1.974817         2.797970         1.656661
 C        -1.499538         1.877841         0.539859
 C        -0.619726         0.858100         1.306678
 O         0.134807        -0.028956         0.451436
 C        -1.468063         0.350083         2.450468
 C        -2.080443         1.765734         2.901849
 C        -0.842660         2.771426         2.598183
 C         0.338288         1.936550         1.990750
 H        -3.468964         3.847952         1.042959
 H        -2.294890         1.611317        -0.181766
 H        -0.747259         2.380210        -0.173773
 H         0.494073        -0.782015         1.041354
 H        -2.210984        -0.303675         2.008058
 H        -0.766921        -0.238279         3.097163
 H        -2.774123         2.000568         3.715680
 H        -0.771923         3.682047         3.227631
 H         0.856924         2.550229         1.220219
 H         0.973723         1.443471         2.683983
