19
Iteration:  2602
 O        -2.713421         3.992316         1.508096
 C        -1.935497         2.796453         1.665169
 C        -1.508363         1.904413         0.443846
 C        -0.506147         0.909220         1.266336
 O         0.192038        -0.064565         0.531213
 C        -1.680387         0.383215         2.306844
 C        -1.958284         1.755672         2.838779
 C        -0.747300         2.777449         2.638788
 C         0.331897         1.904349         2.146561
 H        -3.624795         3.732427         1.509010
 H        -2.277943         1.443676        -0.158326
 H        -0.983071         2.429011        -0.285018
 H         0.016763        -1.028240         0.626922
 H        -2.422752        -0.008900         1.536556
 H        -1.374317        -0.318966         3.065238
 H        -2.631458         1.795606         3.664831
 H        -0.457804         3.622494         3.247275
 H         1.063010         2.454389         1.624750
 H         0.768550         1.277509         2.974265
