19
Iteration:  2778
 O        -2.603676         3.955850         1.523264
 C        -1.905851         2.715882         1.622561
 C        -1.445103         1.824092         0.412789
 C        -0.562747         0.939271         1.352392
 O         0.081259         0.026936         0.458758
 C        -1.590837         0.371347         2.354383
 C        -2.051898         1.764503         2.804648
 C        -0.803130         2.697229         2.717152
 C         0.327105         2.002845         2.121138
 H        -3.278946         3.823182         0.860970
 H        -2.315225         1.209275         0.027895
 H        -0.794244         2.424041        -0.387366
 H         0.326797        -0.896757         0.826159
 H        -2.474601        -0.121374         1.832072
 H        -1.306845        -0.240005         3.204202
 H        -2.801567         2.057193         3.576087
 H        -0.758063         3.442230         3.500048
 H         0.820322         2.681884         1.534070
 H         1.013164         1.523251         2.802444
