19
Iteration:  3003
 O        -2.723728         3.873907         1.592452
 C        -1.834347         2.827301         1.602295
 C        -1.365111         1.910244         0.514401
 C        -0.527143         0.918009         1.335486
 O         0.150378        -0.033190         0.527375
 C        -1.728038         0.364042         2.212497
 C        -2.058882         1.846105         2.705266
 C        -0.771876         2.753897         2.746525
 C         0.334886         1.913124         2.114596
 H        -3.669117         3.591310         1.547555
 H        -2.379816         1.606405        -0.106068
 H        -0.781211         2.217550        -0.330431
 H         0.495098        -0.741476         0.979012
 H        -2.529071        -0.047416         1.610339
 H        -1.451867        -0.474980         2.961812
 H        -2.922259         2.108748         3.371920
 H        -0.479082         3.472941         3.502735
 H         0.900079         2.473039         1.249270
 H         1.079975         1.359541         2.638069
