19
Iteration:  2535
 O        -2.732329         3.895027         1.457599
 C        -1.962577         2.727190         1.706474
 C        -1.354100         1.904321         0.514362
 C        -0.541675         0.918133         1.272861
 O         0.094563        -0.184210         0.525527
 C        -1.582490         0.494790         2.241677
 C        -2.056841         1.804298         2.861209
 C        -0.719488         2.811168         2.633412
 C         0.356133         1.935437         2.163659
 H        -3.680892         3.652581         1.688531
 H        -2.174714         1.491073        -0.043097
 H        -0.879908         2.497500        -0.299561
 H        -0.232366        -0.002810        -0.347184
 H        -2.357483        -0.185371         1.673938
 H        -1.181206        -0.024782         3.136307
 H        -2.609859         1.851425         3.835547
 H        -0.577714         3.676823         3.278707
 H         1.109522         2.547990         1.688391
 H         0.803676         1.377052         3.045099
