19
Iteration:  1773charge 0 multiplicity 1
 O        -2.729356         3.954785         1.387074
 C        -1.943491         2.819865         1.626813
 C        -1.397306         2.011106         0.541484
 C        -0.557860         0.922916         1.311812
 O         0.042846        -0.072797         0.523579
 C        -1.544942         0.348086         2.274703
 C        -2.017676         1.693101         2.798374
 C        -0.859042         2.669485         2.701423
 C         0.311835         1.879638         2.134293
 H        -2.393376         4.725991         1.925014
 H        -2.196593         1.311489         0.060119
 H        -0.980562         2.723758        -0.149527
 H         1.027070        -0.284006         0.815201
 H        -2.348112        -0.153428         1.749765
 H        -1.041377        -0.341895         3.047837
 H        -2.446166         1.873198         3.781568
 H        -0.712376         3.518312         3.416868
 H         0.948046         2.340650         1.298625
 H         0.893203         1.442980         2.918234
