19
Iteration:  4122
 O        -2.786058         3.826373         1.433310
 C        -1.879622         2.741779         1.676465
 C        -1.398345         1.821057         0.455030
 C        -0.605353         0.939008         1.303850
 O        -0.106681        -0.091662         0.442050
 C        -1.525733         0.483091         2.344174
 C        -1.839429         1.859413         2.982655
 C        -0.720025         2.844867         2.628730
 C         0.392087         1.957992         2.076557
 H        -3.679327         3.470166         1.497857
 H        -2.309478         1.291175         0.100034
 H        -0.853357         2.316397        -0.386406
 H         0.629867        -0.589253         0.976989
 H        -2.518769         0.081556         2.007907
 H        -1.245117        -0.276750         3.086225
 H        -2.564812         2.134072         3.805287
 H        -0.693921         3.593583         3.431985
 H         1.012819         2.371983         1.265540
 H         1.096918         1.491197         2.702391
