19
Iteration:  3683
 O        -2.901492         3.803040         1.523676
 C        -1.861079         2.770100         1.587667
 C        -1.352871         1.969039         0.460881
 C        -0.564395         0.877427         1.306100
 O         0.067296        -0.111842         0.536979
 C        -1.616033         0.405090         2.379600
 C        -1.945684         1.853994         2.878470
 C        -0.774326         2.775587         2.600248
 C         0.353404         1.875417         2.129554
 H        -2.530069         4.691102         1.512145
 H        -2.100305         1.387525        -0.178860
 H        -0.696551         2.563865        -0.207256
 H         0.344992         0.321242        -0.268757
 H        -2.528718        -0.084647         1.972882
 H        -1.220373        -0.199648         3.160596
 H        -2.674824         2.148261         3.584857
 H        -0.468814         3.602572         3.214339
 H         1.016714         2.351976         1.400834
 H         1.002758         1.229067         2.844609
