19
Iteration:  2717charge 0 multiplicity 1
 O        -2.838573         3.907598         1.476533
 C        -1.805346         2.833068         1.631214
 C        -1.321347         1.933657         0.427741
 C        -0.613395         0.891574         1.283291
 O         0.110368        -0.012775         0.473588
 C        -1.622719         0.444665         2.335659
 C        -2.030645         1.864118         2.838403
 C        -0.748469         2.711351         2.739692
 C         0.274522         1.743960         2.143819
 H        -3.716131         3.609964         1.685938
 H        -2.123073         1.432804        -0.095737
 H        -0.729608         2.348447        -0.323273
 H         0.890578        -0.349323         0.969230
 H        -2.394328        -0.111001         1.815172
 H        -0.943106        -0.101604         3.061309
 H        -2.766933         2.280631         3.505452
 H        -0.311499         3.484068         3.323131
 H         0.920185         2.355344         1.371647
 H         0.904335         1.072181         2.794268
