19
Iteration:  3538charge 0 multiplicity 1
 O        -2.797168         3.707729         1.440049
 C        -1.919694         2.688009         1.696089
 C        -1.332634         1.969405         0.513882
 C        -0.577073         0.918936         1.280804
 O         0.022737         0.045972         0.434836
 C        -1.590710         0.476246         2.362513
 C        -2.026353         1.881209         2.879695
 C        -0.766971         2.654577         2.676402
 C         0.335604         1.897120         2.050777
 H        -2.252321         4.525249         1.391619
 H        -2.090178         1.408879        -0.055095
 H        -0.631304         2.645917         0.041781
 H         0.326579        -0.823048         0.916191
 H        -2.356898        -0.150587         1.941734
 H        -0.987212         0.064043         3.159963
 H        -2.706464         2.147839         3.670191
 H        -0.770066         3.562546         3.235316
 H         0.941205         2.594233         1.444294
 H         1.115179         1.534505         2.836333
