19
Iteration:  1813
 O        -2.707091         3.744574         1.316252
 C        -1.808711         2.710235         1.669744
 C        -1.379318         1.979147         0.494592
 C        -0.583669         0.926841         1.291842
 O         0.096214         0.119671         0.350660
 C        -1.652301         0.423027         2.429694
 C        -2.004521         1.865024         2.841787
 C        -0.780734         2.727088         2.754053
 C         0.275857         1.798264         2.207031
 H        -2.914352         4.223849         2.120102
 H        -2.189614         1.481848         0.001394
 H        -0.778476         2.442079        -0.320347
 H        -0.125856        -0.789102         0.462730
 H        -2.569449        -0.115302         2.145720
 H        -1.123793        -0.101923         3.189634
 H        -2.814006         1.896910         3.557089
 H        -0.570195         3.564746         3.376016
 H         0.835940         2.486607         1.613677
 H         0.904280         1.330973         3.013751
