19
Iteration:   239
 O        -2.474533         4.118535         1.560328
 C        -2.021624         2.815626         1.717323
 C        -1.481272         1.908436         0.481032
 C        -0.494692         0.941236         1.232856
 O         0.285910        -0.016779         0.390097
 C        -1.616559         0.354827         2.229782
 C        -2.229670         1.630475         2.814721
 C        -0.944152         2.596320         2.737384
 C         0.291870         1.945520         2.193471
 H        -3.286501         3.905595         1.044264
 H        -2.381879         1.257949         0.047229
 H        -1.018729         2.497358        -0.328790
 H         0.745433        -0.619531         0.948952
 H        -2.442778        -0.237165         1.660705
 H        -1.262228        -0.337166         3.009214
 H        -2.716808         1.540535         3.795002
 H        -0.850851         3.493932         3.385548
 H         0.996953         2.528775         1.478385
 H         0.874499         1.446655         2.981354
