19
Iteration:  4814charge 0 multiplicity 1
 O        -2.940594         3.673582         1.566223
 C        -1.882891         2.794378         1.672039
 C        -1.494374         1.895157         0.434890
 C        -0.566177         0.923555         1.210531
 O         0.053541        -0.101909         0.539798
 C        -1.592900         0.534432         2.387769
 C        -1.856587         1.935151         2.950002
 C        -0.670067         2.777043         2.660901
 C         0.374268         1.857133         1.914626
 H        -2.727263         4.350832         0.854997
 H        -2.385095         1.435107        -0.082538
 H        -0.879528         2.466011        -0.303560
 H         0.889083        -0.284838         1.142151
 H        -2.563956         0.170661         2.043194
 H        -1.041864        -0.151117         3.120957
 H        -2.513124         2.292359         3.697083
 H        -0.510956         3.702155         3.205621
 H         1.077910         2.417548         1.265158
 H         0.777647         1.243493         2.703945
