19
Iteration:   448charge 0 multiplicity 1
 O        -2.751959         3.911226         1.663088
 C        -1.885975         2.821187         1.646420
 C        -1.277153         2.114874         0.428926
 C        -0.484748         0.977900         1.253424
 O         0.092364        -0.133378         0.631156
 C        -1.648101         0.398666         2.090420
 C        -2.100473         1.727241         2.648012
 C        -0.858238         2.709756         2.745058
 C         0.323211         1.787951         2.207876
 H        -3.588654         3.549825         1.252491
 H        -1.863611         1.738329        -0.433879
 H        -0.622762         2.859281        -0.013743
 H         1.033039         0.087135         0.300432
 H        -2.322656        -0.009328         1.313511
 H        -1.288355        -0.340937         2.825023
 H        -2.812970         1.787655         3.497788
 H        -0.835941         3.398845         3.612843
 H         1.242181         2.246769         1.722037
 H         0.464652         1.188214         3.092561
