19
Iteration:  2024
 O        -2.776789         3.935071         1.602371
 C        -1.886476         2.782597         1.613228
 C        -1.414316         1.905949         0.460061
 C        -0.528349         0.815039         1.279126
 O         0.213516        -0.092237         0.570854
 C        -1.646025         0.412886         2.289636
 C        -2.040562         1.844027         2.859333
 C        -0.783205         2.730028         2.644043
 C         0.361054         1.933787         2.096629
 H        -3.595481         3.552998         1.263770
 H        -2.255183         1.389391        -0.027133
 H        -0.865919         2.416688        -0.288080
 H        -0.049284        -0.090019        -0.441764
 H        -2.554056        -0.008528         1.934638
 H        -1.246725        -0.230276         3.094372
 H        -2.788831         2.023126         3.610537
 H        -0.554403         3.663246         3.167691
 H         0.815214         2.567047         1.314989
 H         1.046920         1.540213         2.816637
