19
Iteration:  3960charge 0 multiplicity 1
 O        -2.832395         3.793412         1.499214
 C        -1.844366         2.868909         1.590388
 C        -1.416110         1.923938         0.469977
 C        -0.556944         0.956824         1.288683
 O         0.025578        -0.165759         0.540145
 C        -1.496621         0.440682         2.316415
 C        -1.950504         1.851537         2.752720
 C        -0.761949         2.742472         2.687658
 C         0.350828         2.007826         2.071912
 H        -3.256315         3.869984         2.397208
 H        -2.295650         1.397587         0.115269
 H        -0.788715         2.340602        -0.345673
 H        -0.217743        -0.996098         0.975272
 H        -2.319630        -0.127124         1.875194
 H        -1.221395        -0.206944         3.087995
 H        -2.779897         2.011354         3.488236
 H        -0.577701         3.466131         3.467204
 H         1.051567         2.653541         1.600645
 H         1.099052         1.446841         2.675449
