19
Iteration:  4142charge 0 multiplicity 1
 O        -2.715557         3.885457         1.528767
 C        -1.982263         2.728590         1.683911
 C        -1.456968         1.944524         0.515200
 C        -0.516091         0.917392         1.314064
 O        -0.061450        -0.156361         0.434869
 C        -1.463478         0.413672         2.503563
 C        -1.960200         1.821381         2.831947
 C        -0.808751         2.776765         2.586260
 C         0.394771         1.999443         1.973726
 H        -3.274096         3.784160         0.752374
 H        -2.279004         1.519794        -0.110665
 H        -0.888827         2.569989        -0.151039
 H         0.152024        -0.963199         0.910281
 H        -2.174331        -0.364390         2.203025
 H        -0.987631        -0.002347         3.355388
 H        -2.667859         2.083635         3.714115
 H        -0.349882         3.657969         3.053908
 H         1.050123         2.529365         1.242150
 H         1.037795         1.699755         2.817591
