19
Iteration:   270charge 0 multiplicity 1
 O        -2.578636         3.920215         1.481986
 C        -1.833376         2.765636         1.685237
 C        -1.373328         1.971068         0.397915
 C        -0.591015         0.963102         1.332347
 O         0.050453         0.163689         0.430686
 C        -1.567299         0.361718         2.304824
 C        -2.141056         1.705140         2.753441
 C        -0.877167         2.548792         2.835972
 C         0.261807         1.820603         2.212236
 H        -3.251448         3.843218         0.787877
 H        -2.188402         1.494162        -0.172271
 H        -0.570162         2.459493        -0.143046
 H         1.026461         0.198112         0.703003
 H        -2.451161        -0.129047         1.796629
 H        -1.078751        -0.265060         3.056185
 H        -3.019374         1.697865         3.433853
 H        -0.700457         3.530420         3.312629
 H         0.985442         2.445005         1.575951
 H         0.830347         1.157983         2.895183
