19
Iteration:   920
 O        -2.632369         3.937345         1.293763
 C        -1.915892         2.691487         1.668946
 C        -1.329190         1.951372         0.522930
 C        -0.576905         0.912586         1.275506
 O         0.053068         0.089123         0.495182
 C        -1.637857         0.391718         2.203484
 C        -2.037043         1.710282         2.845068
 C        -0.900370         2.590222         2.793110
 C         0.343269         1.843545         2.292308
 H        -2.681045         4.310448         2.166733
 H        -2.107854         1.639788        -0.207147
 H        -0.554614         2.493244        -0.086997
 H         0.317812         0.544912        -0.250737
 H        -2.479018        -0.172348         1.799108
 H        -1.108886        -0.054387         3.125341
 H        -2.813490         1.835913         3.637575
 H        -0.957099         3.533863         3.363562
 H         1.064976         2.496821         1.652583
 H         0.909467         1.250000         3.064026
