19
Iteration:  2583
 O        -2.720156         3.809826         1.426070
 C        -1.858677         2.810572         1.676678
 C        -1.414170         2.018136         0.478865
 C        -0.607931         0.927242         1.230752
 O         0.197007        -0.027218         0.505862
 C        -1.608278         0.488622         2.313404
 C        -2.056389         1.874748         2.840572
 C        -0.778873         2.689992         2.738571
 C         0.326798         1.792000         2.095042
 H        -3.532548         3.509555         1.806211
 H        -2.278592         1.493432        -0.073042
 H        -0.900474         2.611494        -0.215967
 H        -0.327345        -0.916494         0.657874
 H        -2.529827        -0.117507         2.144231
 H        -0.963393        -0.110088         3.114503
 H        -2.770559         2.207389         3.563947
 H        -0.687290         3.504773         3.477449
 H         1.033418         2.295908         1.354269
 H         0.982655         1.192253         2.875397
