19
Iteration:  1417
 O        -2.755439         3.786409         1.354859
 C        -1.934627         2.743526         1.719988
 C        -1.413310         2.017377         0.544793
 C        -0.550673         0.971766         1.322629
 O         0.062658         0.020313         0.417402
 C        -1.596389         0.461297         2.286515
 C        -1.968796         1.832549         2.923920
 C        -0.785651         2.690543         2.753175
 C         0.383275         1.790100         2.214617
 H        -2.190288         4.215204         0.703147
 H        -2.078587         1.518156        -0.117147
 H        -0.910227         2.593082        -0.290428
 H        -0.633920        -0.544913        -0.006596
 H        -2.445124         0.077204         1.656037
 H        -1.116472        -0.284180         2.896326
 H        -2.874423         1.937211         3.555179
 H        -0.507600         3.524047         3.438155
 H         1.158209         2.298256         1.758592
 H         0.751932         1.075851         2.977994
