19
Iteration:  4053charge 0 multiplicity 1
 O        -2.695150         3.829013         1.548204
 C        -1.965807         2.690266         1.628925
 C        -1.476642         1.858193         0.440316
 C        -0.545949         0.943249         1.281002
 O        -0.044682        -0.144668         0.501266
 C        -1.518128         0.459146         2.388011
 C        -2.022614         1.783960         2.893964
 C        -0.828207         2.821253         2.648474
 C         0.402296         2.028343         2.023911
 H        -2.153684         4.481732         1.095075
 H        -2.339496         1.318353         0.008985
 H        -0.897598         2.350202        -0.312312
 H         0.862850        -0.346941         0.834530
 H        -2.200641        -0.260219         2.007360
 H        -0.909746        -0.148364         2.980412
 H        -2.754201         1.939700         3.651561
 H        -0.868651         3.728987         3.270446
 H         1.060442         2.625996         1.394874
 H         1.160192         1.742448         2.733798
