19
Iteration:  4359
 O        -2.761499         3.795852         1.477067
 C        -1.940241         2.650299         1.707396
 C        -1.399947         1.867780         0.425351
 C        -0.585303         0.912427         1.294171
 O        -0.230243        -0.119687         0.437025
 C        -1.397009         0.491708         2.540600
 C        -1.913108         1.884893         2.981550
 C        -0.737436         2.820978         2.601414
 C         0.428760         2.036053         1.931248
 H        -3.472946         3.557236         0.853707
 H        -2.177511         1.355901        -0.146896
 H        -0.809827         2.497611        -0.191666
 H         0.137720        -0.809317         1.055923
 H        -2.132846        -0.241479         2.161515
 H        -0.626651        -0.005671         3.147548
 H        -2.473097         2.220034         3.795722
 H        -0.498190         3.759839         3.100233
 H         0.993329         2.714037         1.295736
 H         1.123397         1.563512         2.631147
