19
Iteration:  2433charge 0 multiplicity 1
 O        -2.819006         3.817838         1.411742
 C        -1.887456         2.787999         1.633664
 C        -1.403489         1.980495         0.500428
 C        -0.553297         0.937680         1.264519
 O         0.094143        -0.054881         0.507030
 C        -1.535348         0.484279         2.406582
 C        -2.005918         1.862232         2.818519
 C        -0.733787         2.713429         2.740283
 C         0.387043         1.816759         2.095234
 H        -3.706177         3.533873         1.589314
 H        -2.227543         1.373501         0.132400
 H        -0.822335         2.520352        -0.404849
 H        -0.652893        -0.486902         0.021578
 H        -2.417980        -0.143802         2.062652
 H        -0.899254         0.009002         3.179965
 H        -2.790047         2.015876         3.569619
 H        -0.420982         3.558695         3.332036
 H         1.086302         2.462666         1.474029
 H         0.917875         1.359108         2.940063
