19
Iteration:    26
 O        -2.838070         3.734784         1.399775
 C        -1.948374         2.691505         1.690277
 C        -1.319512         2.063862         0.417033
 C        -0.483973         1.004895         1.235427
 O        -0.064796        -0.081676         0.344433
 C        -1.541579         0.517245         2.376820
 C        -1.982937         1.826347         2.871281
 C        -0.760880         2.725778         2.789009
 C         0.398395         1.839518         2.268618
 H        -3.538346         3.694537         2.102188
 H        -2.076499         1.534004        -0.205290
 H        -0.689880         2.759027        -0.206820
 H         0.686366         0.213849        -0.196649
 H        -2.377961        -0.049605         2.029680
 H        -1.044421        -0.219489         3.071711
 H        -2.730991         1.860588         3.685098
 H        -0.576170         3.691092         3.271164
 H         1.255494         2.306042         1.810671
 H         0.872022         1.127943         3.051032
