19
Iteration:  4529
 O        -3.008800         3.729187         1.563551
 C        -1.922498         2.858393         1.655197
 C        -1.556568         1.890893         0.493501
 C        -0.593961         0.851351         1.307338
 O         0.095454        -0.090500         0.475192
 C        -1.594145         0.576693         2.447966
 C        -1.834807         1.982762         2.862153
 C        -0.586612         2.718156         2.574878
 C         0.428994         1.839078         1.948680
 H        -3.109423         4.188628         0.731748
 H        -2.362582         1.379493        -0.089474
 H        -1.018778         2.443572        -0.365620
 H         0.509390        -0.814018         1.083538
 H        -2.421208        -0.027407         2.101093
 H        -1.045702         0.141464         3.297919
 H        -2.281886         2.316110         3.756389
 H        -0.318802         3.445017         3.354221
 H         1.304067         2.282088         1.374254
 H         0.937992         1.217865         2.768381
