19
Iteration:  2759charge 0 multiplicity 1
 O        -2.552860         3.911157         1.581842
 C        -1.957725         2.701739         1.622652
 C        -1.391788         1.886886         0.431842
 C        -0.515393         0.950108         1.242323
 O         0.051194        -0.101433         0.499648
 C        -1.569308         0.410700         2.239343
 C        -2.059449         1.829059         2.914396
 C        -0.894918         2.754742         2.715453
 C         0.303155         1.982943         2.102222
 H        -3.405248         3.757861         1.143829
 H        -2.164050         1.305733        -0.123336
 H        -0.830765         2.403566        -0.274661
 H         0.444214        -0.674915         1.280844
 H        -2.392378         0.022994         1.632863
 H        -0.972372        -0.205628         2.959430
 H        -2.902946         1.731394         3.620706
 H        -0.903879         3.739800         3.134037
 H         0.855861         2.631923         1.361206
 H         1.004105         1.542065         2.854965
