19
Iteration:  3243charge 0 multiplicity 1
 O        -2.708328         3.950724         1.586506
 C        -1.897898         2.777296         1.645817
 C        -1.381733         1.978736         0.453947
 C        -0.557161         0.904093         1.332025
 O         0.047757        -0.155066         0.593639
 C        -1.560193         0.342303         2.280059
 C        -2.132855         1.778129         2.727031
 C        -0.808356         2.740562         2.680276
 C         0.415899         1.953713         2.054258
 H        -3.580888         3.476156         1.461184
 H        -2.133610         1.559302        -0.250172
 H        -0.772947         2.608363        -0.121678
 H         0.755543         0.278478         0.179734
 H        -2.267677        -0.338986         1.706202
 H        -1.065905        -0.199055         3.124366
 H        -2.734662         1.876856         3.628404
 H        -0.800225         3.605573         3.333420
 H         0.806949         2.595801         1.259417
 H         1.104435         1.508250         2.832893
