19
Iteration:  2366
 O        -2.689758         3.974763         1.594182
 C        -1.973197         2.790377         1.623383
 C        -1.480623         1.845014         0.402715
 C        -0.539498         0.901712         1.244608
 O         0.065462        -0.165131         0.542216
 C        -1.499367         0.452151         2.385795
 C        -2.000504         1.819550         2.772402
 C        -0.802141         2.663838         2.697764
 C         0.347620         2.032875         2.038795
 H        -3.539084         3.804755         1.079987
 H        -2.348424         1.263408         0.091142
 H        -1.242131         2.430158        -0.559326
 H         0.969602        -0.253774         0.888701
 H        -2.334624        -0.229930         2.114345
 H        -0.829992         0.020759         3.186937
 H        -2.814926         1.915767         3.528324
 H        -0.689042         3.429109         3.468069
 H         1.043335         2.652478         1.414786
 H         0.823306         1.350527         2.729945
