19
Iteration:   802
 O        -2.631984         3.971594         1.507911
 C        -1.924744         2.759335         1.697102
 C        -1.367149         2.045743         0.518373
 C        -0.562331         0.929692         1.274614
 O         0.118331         0.035968         0.507986
 C        -1.578116         0.370383         2.195326
 C        -2.187433         1.721043         2.732977
 C        -0.849092         2.637607         2.724223
 C         0.271881         1.754182         2.289975
 H        -2.813222         3.984921         0.519659
 H        -2.116564         1.649409        -0.188311
 H        -0.603282         2.610648        -0.085761
 H         0.961392         0.296424         0.025670
 H        -2.219433        -0.207064         1.559237
 H        -1.098028        -0.203479         2.984324
 H        -2.793942         1.633132         3.608952
 H        -0.829929         3.372005         3.524592
 H         0.898735         2.421040         1.766493
 H         0.866408         1.110673         2.957713
