19
Iteration:  4886charge 0 multiplicity 1
 O        -2.667171         3.819541         1.399295
 C        -1.912384         2.739458         1.691493
 C        -1.531375         1.881728         0.500402
 C        -0.592532         0.938478         1.253152
 O        -0.031677        -0.162256         0.477268
 C        -1.413210         0.363263         2.504121
 C        -2.005509         1.764688         2.879871
 C        -0.806736         2.783527         2.696976
 C         0.320761         2.158186         1.921029
 H        -2.194873         4.619333         1.697631
 H        -2.421958         1.576318        -0.023852
 H        -1.009021         2.613547        -0.121758
 H         0.405560        -0.779292         1.200606
 H        -2.101435        -0.430479         2.060711
 H        -0.785802        -0.042901         3.250691
 H        -2.647524         1.803393         3.748858
 H        -0.890118         3.605879         3.350024
 H         0.730844         2.782860         1.072608
 H         1.055628         1.577522         2.476494
