19
Iteration:  1674
 O        -2.734423         3.770885         1.361480
 C        -1.862910         2.668785         1.703238
 C        -1.282314         2.077942         0.480469
 C        -0.589057         0.977159         1.267024
 O         0.044882         0.070212         0.447939
 C        -1.672206         0.391063         2.417791
 C        -2.037668         1.820652         2.822174
 C        -0.730909         2.671460         2.886346
 C         0.308785         1.807581         2.139677
 H        -2.440440         3.988511         0.466714
 H        -2.071551         1.598495        -0.180349
 H        -0.630417         2.656268        -0.121923
 H        -0.619607        -0.145227        -0.221141
 H        -2.491183        -0.290439         2.166489
 H        -0.948941        -0.009817         3.232813
 H        -2.884080         2.115501         3.450201
 H        -0.645101         3.478328         3.551803
 H         0.968458         2.388938         1.411241
 H         0.866219         1.186140         2.808478
