19
Iteration:  1150
 O        -2.685142         3.859402         1.372880
 C        -1.971702         2.794617         1.707628
 C        -1.369372         1.967810         0.581075
 C        -0.539107         0.906850         1.344405
 O        -0.026497         0.020841         0.405777
 C        -1.560823         0.369617         2.329776
 C        -2.021318         1.813774         2.773474
 C        -0.781827         2.752776         2.686184
 C         0.382179         1.752444         2.218752
 H        -3.585048         3.531441         1.415576
 H        -2.099938         1.586731        -0.110904
 H        -0.697714         2.635497         0.061748
 H         0.812533         0.330681         0.119692
 H        -2.304216        -0.140892         1.720389
 H        -1.357540        -0.239423         3.256175
 H        -2.546910         2.019998         3.692350
 H        -0.741131         3.581642         3.417846
 H         0.892918         2.352656         1.433400
 H         1.029833         1.363273         2.945135
