19
Iteration:  1899charge 0 multiplicity 1
 O        -2.729382         3.972859         1.587424
 C        -1.967925         2.792380         1.615936
 C        -1.444168         1.925933         0.472806
 C        -0.508743         0.905927         1.289016
 O         0.110199        -0.130218         0.535608
 C        -1.572233         0.383201         2.400974
 C        -2.036925         1.800254         2.825212
 C        -0.833991         2.731073         2.640018
 C         0.344883         1.847360         2.019366
 H        -3.109424         3.920953         0.682387
 H        -2.200502         1.503558        -0.139740
 H        -0.709682         2.564447        -0.113359
 H         0.926088         0.429865         0.135793
 H        -2.483950        -0.161836         1.885615
 H        -1.227627        -0.380053         3.100886
 H        -2.751271         1.991305         3.626560
 H        -0.678274         3.474892         3.420675
 H         1.089834         2.433814         1.442516
 H         0.952403         1.505027         2.947570
