19
Iteration:  1666
 O        -2.746211         3.793999         1.403944
 C        -1.857961         2.785190         1.655259
 C        -1.320432         2.042310         0.487751
 C        -0.624401         0.918872         1.312791
 O         0.071244         0.073830         0.443155
 C        -1.656362         0.351417         2.386800
 C        -1.993086         1.795653         2.789497
 C        -0.793861         2.714836         2.842111
 C         0.341769         1.797042         2.172310
 H        -2.389673         4.270215         0.622061
 H        -2.084252         1.446925        -0.086469
 H        -0.637944         2.532353        -0.231263
 H        -0.754966        -0.289457        -0.065867
 H        -2.365602        -0.481935         2.035371
 H        -1.132114        -0.181230         3.273910
 H        -2.780365         2.223285         3.384374
 H        -0.693087         3.507022         3.562636
 H         1.032275         2.450031         1.552596
 H         1.131198         1.176254         2.755377
