19
Iteration:  3378charge 0 multiplicity 1
 O        -2.776759         3.868203         1.579124
 C        -1.830319         2.804246         1.629898
 C        -1.407036         1.933028         0.434431
 C        -0.528269         0.901962         1.339756
 O         0.133126        -0.123452         0.509396
 C        -1.633141         0.417277         2.329751
 C        -2.068206         1.810941         2.810315
 C        -0.836318         2.706205         2.762581
 C         0.343857         1.926122         2.067511
 H        -2.889738         4.055058         0.625340
 H        -2.354236         1.616989        -0.030934
 H        -0.670860         2.408082        -0.167093
 H         0.825861         0.308354        -0.084168
 H        -2.464742         0.049949         1.749333
 H        -1.305141        -0.183029         3.124076
 H        -2.805030         1.863011         3.592026
 H        -0.776294         3.403777         3.576006
 H         0.804656         2.535931         1.185181
 H         1.120205         1.423365         2.645281
