19
Iteration:  1565charge 0 multiplicity 1
 O        -2.729181         3.817330         1.477488
 C        -1.922279         2.750194         1.626088
 C        -1.386087         1.947943         0.518666
 C        -0.516466         0.981092         1.254033
 O         0.086180        -0.032730         0.474074
 C        -1.606769         0.435528         2.317636
 C        -2.027406         1.822550         2.857385
 C        -0.752286         2.763162         2.673457
 C         0.312265         1.819460         2.220374
 H        -2.432910         4.374732         0.746916
 H        -2.183075         1.263517         0.092381
 H        -0.894448         2.537269        -0.214941
 H        -0.576865        -0.125135        -0.154660
 H        -2.455134        -0.012410         1.752802
 H        -1.217271        -0.353233         3.098900
 H        -2.750789         1.946016         3.687739
 H        -0.671949         3.533923         3.460333
 H         1.266077         2.321100         1.804067
 H         0.671217         1.123096         3.002582
