19
Iteration:    83
 O        -2.609666         3.931284         1.678631
 C        -1.966292         2.683796         1.661821
 C        -1.518758         1.913323         0.375305
 C        -0.539522         0.999107         1.172106
 O         0.296013        -0.002431         0.527366
 C        -1.632928         0.440117         2.284924
 C        -2.043386         1.798365         2.921118
 C        -0.870509         2.623907         2.656747
 C         0.262905         1.918206         2.073628
 H        -3.317961         3.988877         1.040549
 H        -2.274810         1.361272        -0.250506
 H        -0.866949         2.497564        -0.341058
 H         0.102487        -0.874581         0.934400
 H        -2.490826         0.055721         1.685828
 H        -0.997257        -0.308875         2.806728
 H        -2.822133         1.932382         3.654107
 H        -0.687776         3.535748         3.246099
 H         0.967049         2.591594         1.489766
 H         0.794359         1.244685         2.808328
