19
Iteration:  1130charge 0 multiplicity 1
 O        -2.833651         3.915374         1.488780
 C        -1.893330         2.810602         1.649542
 C        -1.262814         1.995534         0.441694
 C        -0.523433         0.958883         1.254781
 O        -0.026706        -0.157300         0.472933
 C        -1.635749         0.470906         2.310940
 C        -2.003650         1.727419         2.861361
 C        -0.769107         2.701877         2.742263
 C         0.411977         1.904866         2.170770
 H        -3.709778         3.548732         1.174724
 H        -1.950672         1.544424        -0.180162
 H        -0.685082         2.711831        -0.162710
 H         0.915674        -0.160810         0.460686
 H        -2.483291         0.010796         1.727929
 H        -1.112501        -0.349633         2.845655
 H        -2.792496         1.930389         3.611757
 H        -0.564127         3.523283         3.465688
 H         1.215533         2.392511         1.571527
 H         0.715390         1.280729         3.032307
