19
Iteration:   769
 O        -2.645577         3.939727         1.403927
 C        -1.853883         2.792487         1.675103
 C        -1.264529         1.994686         0.450668
 C        -0.503974         0.893880         1.260948
 O         0.095002         0.022260         0.376579
 C        -1.689343         0.373249         2.219147
 C        -2.139825         1.739305         2.833684
 C        -0.863619         2.629114         2.866183
 C         0.317622         1.842801         2.404649
 H        -3.548654         3.598463         1.196087
 H        -2.102815         1.778233        -0.213574
 H        -0.465371         2.587635        -0.076179
 H         0.513289         0.483263        -0.311687
 H        -2.488449        -0.132754         1.708804
 H        -1.379827        -0.462595         2.860630
 H        -2.931562         1.742709         3.550969
 H        -0.922586         3.479728         3.531833
 H         0.826493         2.564639         1.837788
 H         0.961243         1.185357         3.014122
