19
Iteration:  2999
 O        -2.742084         3.889666         1.623386
 C        -1.854804         2.839516         1.602770
 C        -1.384021         1.905924         0.481576
 C        -0.501930         0.886197         1.331231
 O         0.153027        -0.076024         0.508962
 C        -1.698204         0.371251         2.213327
 C        -2.081071         1.844757         2.720866
 C        -0.801946         2.777247         2.746958
 C         0.363722         1.919739         2.105095
 H        -3.562832         3.375968         1.489240
 H        -2.266240         1.737671        -0.134323
 H        -0.770666         2.356668        -0.355276
 H         0.559422        -0.866471         1.083666
 H        -2.465623         0.002028         1.515505
 H        -1.663658        -0.342027         2.947598
 H        -2.851218         2.294316         3.389169
 H        -0.459537         3.458230         3.527286
 H         0.935038         2.377664         1.390188
 H         1.149644         1.459506         2.720868
