19
Iteration:  4027charge 0 multiplicity 1
 O        -2.701740         3.899198         1.458407
 C        -1.925144         2.763809         1.636114
 C        -1.537732         1.830150         0.512319
 C        -0.544679         0.961107         1.250893
 O         0.024123        -0.033931         0.473018
 C        -1.484472         0.435997         2.438276
 C        -2.020342         1.791817         2.874842
 C        -0.781497         2.683181         2.751810
 C         0.349304         1.952200         1.995762
 H        -2.844404         3.996425         0.511546
 H        -2.494636         1.407277         0.231284
 H        -0.917403         2.262270        -0.313562
 H         0.467666        -0.570481         1.134227
 H        -2.155624        -0.271905         1.912090
 H        -0.965470        -0.213083         3.176372
 H        -2.797227         2.088574         3.627013
 H        -0.594011         3.597085         3.324911
 H         0.930195         2.714347         1.458797
 H         1.217832         1.529393         2.623904
