19
Iteration:  4794charge 0 multiplicity 1
 O        -2.892523         3.699563         1.677717
 C        -1.878521         2.743581         1.591760
 C        -1.385649         1.942569         0.426156
 C        -0.548616         0.919133         1.335955
 O        -0.112312        -0.191565         0.566391
 C        -1.573562         0.460114         2.369053
 C        -1.970821         1.841251         2.812483
 C        -0.651088         2.855438         2.589354
 C         0.440880         2.041470         1.978199
 H        -3.050613         4.156154         0.830653
 H        -2.078189         1.279022        -0.186562
 H        -0.790723         2.656904        -0.201022
 H         0.719174        -0.506188         0.947128
 H        -2.259163        -0.063006         1.750221
 H        -1.195556        -0.146572         3.268732
 H        -2.537536         2.157473         3.646706
 H        -0.332096         3.715711         3.200269
 H         0.723211         2.629897         1.169483
 H         1.347867         1.740357         2.552360
