19
Iteration:  3871charge 0 multiplicity 1
 O        -2.793176         3.868169         1.497819
 C        -1.926042         2.776240         1.622985
 C        -1.438686         1.874992         0.424747
 C        -0.563134         0.932522         1.257186
 O         0.047173        -0.008237         0.428128
 C        -1.543705         0.497449         2.435681
 C        -2.037245         1.816499         2.887431
 C        -0.778358         2.709765         2.700465
 C         0.363991         1.830795         2.131705
 H        -2.510289         4.447939         0.730549
 H        -2.191774         1.215092         0.006033
 H        -0.999997         2.231050        -0.498050
 H         0.896334        -0.259674         0.783946
 H        -2.318390        -0.200237         2.099543
 H        -1.005025         0.009482         3.156772
 H        -2.718827         1.933407         3.714911
 H        -0.561959         3.510557         3.447931
 H         1.102756         2.327954         1.573989
 H         0.984808         1.170671         2.755743
