19
Iteration:  1075
 O        -2.655486         4.104949         1.600982
 C        -2.030743         2.784301         1.568759
 C        -1.425493         1.897791         0.414151
 C        -0.542891         0.842471         1.338254
 O         0.209445        -0.090443         0.524105
 C        -1.666056         0.415613         2.211941
 C        -2.017036         1.770646         2.820287
 C        -0.838974         2.633552         2.719094
 C         0.273318         1.846355         2.143012
 H        -3.658702         4.041311         1.603655
 H        -2.120325         1.438485        -0.207784
 H        -0.707243         2.478844        -0.168072
 H         1.196504         0.200945         0.435232
 H        -2.355413        -0.210375         1.635326
 H        -1.229304        -0.286232         2.965794
 H        -2.621348         1.933022         3.665772
 H        -0.655249         3.512073         3.331377
 H         0.929320         2.417073         1.413239
 H         1.007108         1.357148         2.851692
