19
Iteration:   702
 O        -2.729144         3.976723         1.577474
 C        -1.871913         2.758126         1.720000
 C        -1.263214         2.006836         0.427036
 C        -0.528432         0.944732         1.222100
 O         0.222882        -0.081125         0.640360
 C        -1.740893         0.391525         2.069095
 C        -2.202024         1.690332         2.671387
 C        -0.907950         2.677573         2.752072
 C         0.352342         1.826629         2.203519
 H        -2.619966         4.249136         2.484292
 H        -2.047411         1.736861        -0.252944
 H        -0.581435         2.780271        -0.020951
 H         0.780034         0.211740        -0.135011
 H        -2.449642        -0.061818         1.379463
 H        -1.510159        -0.405535         2.818907
 H        -2.992193         1.879524         3.414242
 H        -0.700481         3.387550         3.555609
 H         0.987648         2.461507         1.621357
 H         0.852562         1.279027         2.979934
