19
Iteration:  2979charge 0 multiplicity 1
 O        -2.779747         3.904149         1.619702
 C        -1.937714         2.775347         1.614395
 C        -1.288921         2.025506         0.435729
 C        -0.527895         0.954857         1.236054
 O         0.116665        -0.165764         0.527806
 C        -1.675765         0.498020         2.241515
 C        -2.001226         1.800862         2.792312
 C        -0.782709         2.704677         2.659394
 C         0.335897         1.884580         2.163115
 H        -3.706926         3.692955         1.316589
 H        -2.034784         1.421895        -0.274469
 H        -0.731465         2.581648        -0.328555
 H         0.560080        -0.775940         1.161873
 H        -2.559089        -0.013627         1.874814
 H        -1.175021        -0.174000         2.895500
 H        -2.769829         1.751247         3.600460
 H        -0.684872         3.578615         3.295571
 H         1.072791         2.457097         1.594362
 H         0.856110         1.345924         2.903870
