19
Iteration:   972charge 0 multiplicity 1
 O        -2.728773         3.973242         1.656500
 C        -1.884786         2.810949         1.630929
 C        -1.336459         1.959273         0.286781
 C        -0.588913         0.966411         1.221183
 O         0.146561        -0.054071         0.744927
 C        -1.649876         0.418305         2.150925
 C        -2.095103         1.777062         2.720329
 C        -0.752442         2.629073         2.810987
 C         0.325262         1.848431         2.123087
 H        -3.617586         3.577196         1.538108
 H        -1.894895         1.234465        -0.311498
 H        -0.746905         2.501895        -0.377079
 H         0.170339        -0.042778        -0.183509
 H        -2.459464         0.035619         1.506731
 H        -1.094826        -0.282878         2.813660
 H        -2.917136         2.026657         3.406876
 H        -0.676285         3.416423         3.572517
 H         1.247127         2.262523         1.668696
 H         0.772038         1.059506         2.737809
