19
Iteration:  3628
 O        -2.753931         3.981932         1.493560
 C        -1.961987         2.744148         1.688290
 C        -1.390491         1.897168         0.441098
 C        -0.577547         0.865060         1.274570
 O         0.077649        -0.112798         0.566394
 C        -1.532226         0.389459         2.371777
 C        -1.984649         1.746501         2.893865
 C        -0.813261         2.776873         2.667794
 C         0.298741         1.959210         2.040341
 H        -2.929319         4.084607         0.550141
 H        -2.180181         1.419245        -0.182574
 H        -0.595678         2.439877         0.035976
 H         0.405684         0.349969        -0.305842
 H        -2.410997        -0.139458         1.927074
 H        -1.144360        -0.202213         3.170981
 H        -2.535749         1.806685         3.840905
 H        -0.614844         3.522860         3.491358
 H         1.046633         2.350901         1.357386
 H         0.985411         1.320811         2.741480
