19
Iteration:  4285charge 0 multiplicity 1
 O        -2.721590         3.874339         1.541059
 C        -1.903974         2.736755         1.685897
 C        -1.558530         1.806405         0.485122
 C        -0.614372         0.909855         1.268918
 O        -0.018727        -0.164887         0.501976
 C        -1.495983         0.400517         2.485583
 C        -1.880477         1.878816         2.990815
 C        -0.707642         2.869625         2.497562
 C         0.301787         1.998161         1.930660
 H        -3.409399         3.768591         0.852026
 H        -2.365086         1.221184        -0.036536
 H        -0.933883         2.390140        -0.222472
 H         0.866215        -0.084264         0.753800
 H        -2.463014        -0.090367         2.161591
 H        -0.975788        -0.195667         3.206188
 H        -2.461579         2.123511         3.830121
 H        -0.367367         3.718742         3.074344
 H         0.894028         2.427315         1.033260
 H         1.040765         1.566791         2.638459
