19
Iteration:  4718
 O        -2.790819         3.873791         1.373512
 C        -1.917435         2.758616         1.643543
 C        -1.610652         1.741174         0.591174
 C        -0.590221         0.789376         1.381253
 O         0.133049         0.045243         0.404608
 C        -1.643393         0.306550         2.443501
 C        -1.870585         1.882336         2.979856
 C        -0.716885         2.853544         2.618066
 C         0.357500         2.009036         1.943395
 H        -2.364185         4.650547         1.824569
 H        -2.565250         1.210887         0.270904
 H        -1.155810         2.100597        -0.362929
 H         0.459745        -0.911910         0.552395
 H        -2.462684        -0.127372         1.940029
 H        -1.267198        -0.343306         3.294167
 H        -2.163575         2.239388         3.919875
 H        -0.375301         3.697181         3.183296
 H         0.843719         2.450956         1.107906
 H         1.143795         1.644497         2.712393
