19
Iteration:  2474
 O        -2.663961         3.991051         1.531901
 C        -2.014624         2.705251         1.682520
 C        -1.439695         1.890567         0.455908
 C        -0.513841         0.902631         1.260666
 O         0.132391        -0.111832         0.445867
 C        -1.583000         0.452472         2.358038
 C        -1.983399         1.817690         2.917939
 C        -0.856385         2.700083         2.618277
 C         0.331667         1.937670         2.073779
 H        -3.530039         3.995920         1.027716
 H        -2.253508         1.241653         0.019788
 H        -0.889599         2.569574        -0.197166
 H         0.614285        -0.630206         1.174403
 H        -2.367087        -0.148870         1.997248
 H        -1.112697        -0.156836         3.137020
 H        -2.780135         2.001602         3.638102
 H        -0.753773         3.596405         3.208945
 H         0.905408         2.541027         1.391293
 H         1.062743         1.449953         2.660506
