19
Iteration:  3408charge 0 multiplicity 1
 O        -2.799088         3.784360         1.476069
 C        -1.903483         2.713693         1.614640
 C        -1.430395         1.948178         0.454162
 C        -0.541447         0.971218         1.315965
 O         0.069191         0.044468         0.445026
 C        -1.594423         0.427616         2.405464
 C        -1.984380         1.836338         2.896632
 C        -0.803569         2.747134         2.610880
 C         0.346138         1.772033         2.185965
 H        -2.300975         4.512157         1.077077
 H        -2.269302         1.547568        -0.177716
 H        -0.827562         2.516482        -0.247739
 H         1.041451         0.245441         0.310389
 H        -2.552411        -0.115916         2.030473
 H        -1.072008        -0.308571         3.100711
 H        -2.814298         1.999479         3.564432
 H        -0.716572         3.563764         3.331697
 H         1.132901         2.110703         1.632599
 H         0.662296         1.071668         2.946334
