19
Iteration:   852charge 0 multiplicity 1
 O        -2.744413         3.847327         1.733926
 C        -1.862646         2.709383         1.622487
 C        -1.248699         2.069374         0.427370
 C        -0.578560         0.983802         1.257001
 O         0.139741        -0.104902         0.701712
 C        -1.768259         0.412445         2.076045
 C        -2.135494         1.754050         2.709714
 C        -0.812476         2.677022         2.715285
 C         0.348474         1.889619         2.117770
 H        -2.757757         4.354134         0.910047
 H        -1.990503         1.674203        -0.277373
 H        -0.636919         2.808481        -0.071933
 H         1.048266         0.122942         0.392349
 H        -2.554201        -0.069061         1.446400
 H        -1.171972        -0.283787         2.719822
 H        -3.071366         1.864059         3.192581
 H        -0.853935         3.603993         3.253662
 H         1.288943         2.337668         1.631009
 H         0.736149         1.154489         2.853753
