19
Iteration:   678
 O        -2.689784         3.931371         1.409614
 C        -1.891251         2.792004         1.681293
 C        -1.311776         2.073738         0.513375
 C        -0.505253         0.966597         1.304667
 O         0.102509         0.039326         0.467699
 C        -1.632381         0.333080         2.171028
 C        -2.087711         1.678837         2.668773
 C        -0.946882         2.585636         2.828432
 C         0.296529         1.766204         2.318550
 H        -2.255573         4.711697         1.856568
 H        -2.195816         1.597845         0.010120
 H        -0.736897         2.731170        -0.228006
 H         0.967188         0.387011         0.077347
 H        -2.450383        -0.103766         1.622421
 H        -1.356349        -0.390555         2.975972
 H        -2.921200         1.798687         3.398014
 H        -0.798869         3.141870         3.748712
 H         0.912787         2.504832         1.781512
 H         0.846699         1.134921         2.991832
