19
Iteration:  3132charge 0 multiplicity 1
 O        -2.746035         3.959258         1.545024
 C        -1.911704         2.741150         1.597719
 C        -1.375070         1.984797         0.391039
 C        -0.592430         0.936761         1.283477
 O         0.138179        -0.022804         0.531256
 C        -1.550019         0.425576         2.254907
 C        -2.053540         1.800589         2.772776
 C        -0.837898         2.730582         2.645383
 C         0.371070         1.829113         2.220625
 H        -3.542963         3.627687         1.975211
 H        -2.166289         1.469519        -0.203897
 H        -0.658599         2.456214        -0.266112
 H        -0.107698        -0.960876         0.897758
 H        -2.290339        -0.203542         1.693217
 H        -1.076113        -0.232674         3.059245
 H        -2.762052         1.784466         3.600828
 H        -0.702404         3.554012         3.361782
 H         1.198939         2.377118         1.697458
 H         0.907016         1.176872         3.076179
