19
Iteration:  1227
 O        -2.730853         3.897942         1.699954
 C        -1.913043         2.741976         1.645214
 C        -1.339414         1.990582         0.318100
 C        -0.603201         0.920982         1.264795
 O         0.218902        -0.126713         0.602087
 C        -1.625630         0.488644         2.281624
 C        -1.997390         1.819834         2.774413
 C        -0.831232         2.673186         2.744318
 C         0.305824         1.921220         2.038514
 H        -3.355702         3.889297         0.924270
 H        -2.133603         1.521940        -0.409148
 H        -0.664270         2.514935        -0.387098
 H        -0.494791        -0.770111         0.496966
 H        -2.584238         0.173683         1.855297
 H        -1.162675        -0.258077         2.984914
 H        -2.763516         1.911652         3.616833
 H        -0.769933         3.504656         3.460863
 H         0.877192         2.515287         1.294599
 H         0.978073         1.382971         2.649638
