19
Iteration:    76charge 0 multiplicity 1
 O        -2.655528         3.879967         1.641975
 C        -1.940311         2.707104         1.630984
 C        -1.437340         1.972916         0.396784
 C        -0.505637         0.998399         1.182582
 O         0.266895        -0.007963         0.517814
 C        -1.648947         0.499324         2.319466
 C        -2.016115         1.778446         2.938762
 C        -0.900984         2.631630         2.688864
 C         0.285336         1.883068         2.047018
 H        -3.437146         3.729676         1.038868
 H        -2.252220         1.402628        -0.059875
 H        -0.975680         2.659449        -0.288546
 H        -0.131229        -0.939363         0.627718
 H        -2.454893        -0.026825         1.733578
 H        -1.299522        -0.307419         2.964414
 H        -2.853046         2.053365         3.568083
 H        -0.624279         3.359664         3.413064
 H         0.950886         2.569506         1.475765
 H         0.951727         1.305187         2.633837
