19
Iteration:  1743
 O        -2.717926         3.834585         1.675202
 C        -1.894575         2.711162         1.576213
 C        -1.364987         1.987734         0.354171
 C        -0.588699         0.925123         1.187335
 O         0.194300        -0.162337         0.644325
 C        -1.647652         0.509430         2.329881
 C        -2.105785         1.848246         2.726859
 C        -0.843134         2.679773         2.719505
 C         0.259664         1.880874         2.094169
 H        -2.241589         4.659195         1.756207
 H        -2.137747         1.425687        -0.199860
 H        -0.923402         2.721450        -0.308389
 H         0.840594         0.193826         0.111363
 H        -2.549161        -0.086194         1.922072
 H        -1.086533        -0.068281         3.116501
 H        -2.955146         2.047043         3.383113
 H        -0.489124         3.596661         3.264145
 H         0.896405         2.401544         1.319340
 H         0.915352         1.234278         2.784602
