19
Iteration:   480charge 0 multiplicity 1
 O        -2.674866         3.883379         1.594895
 C        -1.833401         2.820080         1.636953
 C        -1.268104         2.032753         0.343152
 C        -0.496398         0.951022         1.245296
 O         0.187395        -0.093766         0.571120
 C        -1.706084         0.420274         2.143656
 C        -2.149448         1.788174         2.678903
 C        -0.919120         2.619011         2.890590
 C         0.251719         1.856898         2.208363
 H        -3.325270         3.696525         2.268170
 H        -1.984937         1.552064        -0.392623
 H        -0.646578         2.814424        -0.060902
 H         0.821919         0.195726        -0.098390
 H        -2.460904        -0.030685         1.439404
 H        -1.511575        -0.360754         2.888538
 H        -3.009622         1.885419         3.381323
 H        -0.821125         3.479381         3.589478
 H         1.094235         2.420422         1.722057
 H         0.772995         1.254754         2.956771
