19
Iteration:  3995
 O        -2.738527         3.839865         1.454263
 C        -1.956906         2.704285         1.673904
 C        -1.478893         1.933958         0.534292
 C        -0.581075         0.893231         1.299308
 O         0.152456         0.021272         0.424700
 C        -1.596428         0.433073         2.459620
 C        -1.926924         1.919017         2.896455
 C        -0.728255         2.783241         2.521617
 C         0.324569         1.802562         2.062914
 H        -3.692923         3.575199         1.327224
 H        -2.261809         1.561288        -0.109161
 H        -0.757683         2.434463        -0.124814
 H         0.089611        -0.826463         0.876595
 H        -2.447916         0.041729         1.947916
 H        -1.069419        -0.189474         3.115709
 H        -2.530257         2.024862         3.830757
 H        -0.527884         3.643461         3.154225
 H         1.049302         2.453174         1.601548
 H         0.534998         1.278233         3.041182
