19
Iteration:  2864charge 0 multiplicity 1
 O        -2.790021         3.980259         1.597170
 C        -1.866326         2.788512         1.629358
 C        -1.311306         1.992912         0.411157
 C        -0.512041         0.937801         1.287095
 O         0.069435        -0.189504         0.506196
 C        -1.635463         0.411304         2.312455
 C        -2.042050         1.821125         2.752505
 C        -0.844171         2.674635         2.692079
 C         0.364343         1.944092         2.104361
 H        -3.648871         3.497265         1.478729
 H        -2.035751         1.407310        -0.136479
 H        -0.657097         2.591548        -0.283647
 H         0.780772        -0.609392         1.074622
 H        -2.413361        -0.232222         1.909070
 H        -1.118418        -0.206527         2.989881
 H        -2.766390         2.114036         3.544498
 H        -0.789932         3.436992         3.432989
 H         0.963357         2.570774         1.458680
 H         1.052267         1.340191         2.718284
