19
Iteration:  3878
 O        -2.814588         3.874168         1.481328
 C        -1.866603         2.824999         1.642351
 C        -1.477383         1.790004         0.450498
 C        -0.550928         0.921882         1.308422
 O         0.060337         0.022306         0.386471
 C        -1.525381         0.444443         2.401505
 C        -2.014561         1.863052         2.853175
 C        -0.815714         2.710845         2.700725
 C         0.401094         1.817012         2.141056
 H        -2.432988         4.582350         0.924446
 H        -2.383453         1.156328         0.154541
 H        -1.046660         2.171051        -0.513432
 H         0.834098        -0.355876         0.691179
 H        -2.441570        -0.094936         2.096419
 H        -1.003982        -0.008932         3.333014
 H        -2.829213         2.096721         3.606771
 H        -0.731360         3.389265         3.550642
 H         1.098235         2.425452         1.488982
 H         0.867185         1.231556         2.914561
