19
Iteration:   578charge 0 multiplicity 1
 O        -2.765095         3.921150         1.632740
 C        -1.930443         2.754922         1.692831
 C        -1.222218         2.111814         0.383911
 C        -0.528181         0.987944         1.201675
 O         0.162453        -0.072635         0.676366
 C        -1.651242         0.402003         2.046603
 C        -2.130089         1.683147         2.677509
 C        -0.853934         2.615732         2.756414
 C         0.224501         1.778246         2.241252
 H        -2.343432         4.727077         1.945022
 H        -1.988538         1.702921        -0.396107
 H        -0.529879         2.878057        -0.127103
 H         0.849755         0.092783        -0.014648
 H        -2.467349        -0.129529         1.468735
 H        -1.250482        -0.354259         2.758346
 H        -2.786105         1.888055         3.492500
 H        -0.905825         3.490175         3.389620
 H         1.044588         2.337862         1.725206
 H         0.786255         1.179029         2.929228
