19
Iteration:  4573charge 0 multiplicity 1
 O        -2.732508         3.884839         1.524578
 C        -1.988927         2.672567         1.606565
 C        -1.505822         1.782944         0.463526
 C        -0.529951         0.975250         1.285689
 O        -0.085963        -0.180208         0.481421
 C        -1.415411         0.425191         2.507251
 C        -1.954214         1.810621         2.900138
 C        -0.836606         2.786227         2.572086
 C         0.371497         2.081672         1.936772
 H        -2.087226         4.486886         1.870639
 H        -2.297086         1.253653        -0.118807
 H        -0.944753         2.408055        -0.318632
 H         0.495474        -0.665736         1.149840
 H        -2.265570        -0.107333         2.113582
 H        -0.856377        -0.157273         3.263719
 H        -2.269218         2.154499         3.886858
 H        -0.718333         3.647852         3.260210
 H         0.691773         2.800762         1.132432
 H         1.319691         1.883595         2.503109
