19
Iteration:   483charge 0 multiplicity 1
 O        -2.673473         3.903469         1.567326
 C        -1.844774         2.799970         1.674706
 C        -1.273471         2.025219         0.388161
 C        -0.502288         0.939681         1.237551
 O         0.201740        -0.103739         0.552498
 C        -1.680852         0.417615         2.143424
 C        -2.163427         1.779690         2.674861
 C        -0.917282         2.632856         2.854185
 C         0.243684         1.864757         2.226557
 H        -3.394083         3.872957         2.257351
 H        -2.003643         1.682193        -0.285600
 H        -0.625459         2.741610        -0.043157
 H         0.846708         0.299381        -0.154320
 H        -2.439647         0.038430         1.512995
 H        -1.572676        -0.404184         2.892911
 H        -2.985891         1.898754         3.370834
 H        -0.852482         3.400996         3.644370
 H         1.078882         2.345104         1.694059
 H         0.837057         1.210125         2.911600
