19
Iteration:  1902
 O        -2.731055         3.979370         1.555485
 C        -1.972813         2.796255         1.650702
 C        -1.437853         1.906976         0.490225
 C        -0.504612         0.895472         1.258420
 O         0.110428        -0.112935         0.501636
 C        -1.552126         0.377652         2.418801
 C        -2.048203         1.795563         2.824427
 C        -0.857394         2.753747         2.638204
 C         0.348574         1.826185         2.055536
 H        -3.109110         3.984144         0.684077
 H        -2.224815         1.582526        -0.194221
 H        -0.795134         2.542508        -0.103909
 H         0.943107         0.248127         0.198800
 H        -2.386445        -0.080512         1.910402
 H        -1.173245        -0.356429         3.139251
 H        -2.687318         2.014244         3.733672
 H        -0.653074         3.593945         3.391415
 H         1.064453         2.451897         1.523147
 H         0.915557         1.332305         2.882772
