19
Iteration:  4332
 O        -2.756778         3.938160         1.609622
 C        -1.966961         2.749886         1.665899
 C        -1.607162         1.753261         0.472258
 C        -0.563633         0.850768         1.320721
 O         0.039438        -0.137008         0.485381
 C        -1.496518         0.468820         2.445993
 C        -1.828197         1.880695         2.880566
 C        -0.729721         2.877529         2.555246
 C         0.364491         1.944094         1.896889
 H        -3.208591         4.043557         0.742651
 H        -2.528271         1.147084         0.442580
 H        -1.404664         2.229007        -0.548581
 H         0.455808        -0.695653         1.174396
 H        -2.279379        -0.152244         1.991484
 H        -0.880660        -0.105282         3.204830
 H        -2.507920         2.220216         3.722522
 H        -0.631227         3.754595         3.204532
 H         1.068029         2.407280         1.156350
 H         1.001797         1.436530         2.649959
