19
Iteration:  4267charge 0 multiplicity 1
 O        -2.773846         3.892821         1.442944
 C        -1.976649         2.714231         1.656332
 C        -1.489897         1.869186         0.506766
 C        -0.475569         0.924026         1.308694
 O        -0.223201        -0.195545         0.504628
 C        -1.399496         0.501350         2.465142
 C        -1.845585         1.880070         2.919434
 C        -0.790778         2.777424         2.600860
 C         0.474605         1.994358         1.980436
 H        -3.713486         3.620737         1.333996
 H        -2.259198         1.162669         0.196832
 H        -0.834977         2.276848        -0.298242
 H         0.637460        -0.336891         0.208299
 H        -2.278314        -0.026116         2.054540
 H        -0.792321        -0.052787         3.241086
 H        -2.499719         1.861813         3.792651
 H        -0.812890         3.717114         3.157300
 H         1.080862         2.563383         1.294226
 H         1.132637         1.531473         2.715941
