19
Iteration:  3094charge 0 multiplicity 1
 O        -2.685052         3.832451         1.548832
 C        -1.844012         2.798736         1.691099
 C        -1.418060         1.981190         0.463061
 C        -0.584652         0.909362         1.265367
 O         0.175346        -0.058656         0.526481
 C        -1.697228         0.500860         2.226928
 C        -2.103442         1.776749         2.819110
 C        -0.769209         2.728873         2.733274
 C         0.317764         1.856925         2.079834
 H        -3.401855         3.607983         0.904104
 H        -2.221789         1.672151        -0.220652
 H        -0.775625         2.653067        -0.165454
 H         0.766054        -0.593296         1.089156
 H        -2.537075        -0.045157         1.721901
 H        -1.222792        -0.262717         2.945493
 H        -2.826918         1.921904         3.610677
 H        -0.746015         3.566006         3.419436
 H         0.982559         2.538085         1.489713
 H         1.003421         1.331944         2.769121
