19
Iteration:  2766
 O        -2.573498         3.936355         1.572039
 C        -1.891123         2.678382         1.602029
 C        -1.406228         1.785675         0.448873
 C        -0.542057         0.933795         1.251499
 O         0.041090        -0.032292         0.485403
 C        -1.607307         0.483411         2.283637
 C        -2.002752         1.763263         2.866866
 C        -0.922489         2.735336         2.781118
 C         0.335676         2.020448         2.108706
 H        -3.403471         3.967964         1.014870
 H        -2.109969         1.180369        -0.190961
 H        -0.744351         2.385674        -0.393923
 H         0.343549        -0.713263         1.144239
 H        -2.466039         0.005729         1.712853
 H        -1.097008        -0.214953         2.935261
 H        -2.854975         1.684757         3.573587
 H        -0.937844         3.766907         3.154114
 H         0.856331         2.550012         1.389268
 H         1.048658         1.524787         2.744570
