19
Iteration:  4711
 O        -2.800723         3.917094         1.390468
 C        -1.961627         2.707891         1.663992
 C        -1.575099         1.763538         0.544350
 C        -0.574617         0.798612         1.384535
 O         0.100032        -0.020055         0.398432
 C        -1.568057         0.373877         2.461949
 C        -1.879507         1.905280         2.983348
 C        -0.759836         2.774833         2.596649
 C         0.405148         2.038762         1.938026
 H        -2.449504         4.614066         1.962379
 H        -2.446871         1.252791         0.238582
 H        -1.152946         2.192900        -0.339258
 H         0.319543        -0.828030         0.851841
 H        -2.370944        -0.200847         1.868471
 H        -1.292833        -0.363574         3.168375
 H        -2.384732         2.190604         3.948874
 H        -0.546256         3.749667         3.134119
 H         1.059115         2.577887         1.163109
 H         1.109606         1.511084         2.607914
