19
Iteration:   282charge 0 multiplicity 1
 O        -2.680813         3.936123         1.487705
 C        -1.898083         2.746772         1.601262
 C        -1.235620         2.071310         0.504636
 C        -0.595805         0.958874         1.297793
 O         0.048878         0.096256         0.444107
 C        -1.672651         0.357980         2.262447
 C        -2.108882         1.673454         2.840067
 C        -0.846780         2.680925         2.719041
 C         0.347439         1.736181         2.230960
 H        -3.442167         3.636451         0.906000
 H        -1.980614         1.635317        -0.224393
 H        -0.599664         2.638901        -0.165214
 H         1.010223         0.140486         0.507020
 H        -2.372488        -0.356311         1.698754
 H        -1.193741        -0.284176         3.003856
 H        -2.717298         1.831805         3.724452
 H        -0.773639         3.389881         3.553458
 H         1.146717         2.353120         1.659782
 H         0.828767         1.198786         3.062138
