19
Iteration:  2011
 O        -2.747310         3.845850         1.667892
 C        -1.867970         2.809521         1.609031
 C        -1.484532         1.931251         0.351467
 C        -0.575766         0.985865         1.274493
 O         0.236245        -0.127794         0.673188
 C        -1.648925         0.455462         2.330043
 C        -1.988958         1.825520         2.709620
 C        -0.775406         2.759447         2.654286
 C         0.322913         1.883529         2.030509
 H        -3.695974         3.512838         1.624572
 H        -2.315936         1.467285        -0.014115
 H        -0.896288         2.442065        -0.321098
 H        -0.057415        -0.211077        -0.194241
 H        -2.342985        -0.113960         1.704802
 H        -1.234716        -0.170177         3.125515
 H        -2.676116         2.041885         3.526088
 H        -0.677650         3.520564         3.426452
 H         1.138715         2.334569         1.484881
 H         0.844314         1.284125         2.785927
