19
Iteration:  3235
 O        -2.727601         3.945167         1.636148
 C        -1.846012         2.794086         1.610097
 C        -1.364027         1.912420         0.444477
 C        -0.557886         0.904510         1.312595
 O         0.081375        -0.137698         0.590646
 C        -1.600800         0.409159         2.318849
 C        -2.131115         1.753152         2.699735
 C        -0.836844         2.741572         2.728854
 C         0.395977         1.930382         2.029941
 H        -3.587471         3.513587         1.325175
 H        -2.324907         1.548578        -0.061819
 H        -0.559943         2.293626        -0.237076
 H         0.651949         0.337363        -0.016447
 H        -2.315757        -0.169821         1.776076
 H        -1.096624        -0.144467         3.037724
 H        -2.883288         1.978565         3.507809
 H        -0.818161         3.541553         3.489871
 H         1.008558         2.554682         1.211644
 H         1.228333         1.681722         2.724272
