19
Iteration:  2454charge 0 multiplicity 1
 O        -2.659518         3.848382         1.471408
 C        -1.834313         2.745074         1.625876
 C        -1.479488         1.865426         0.437269
 C        -0.584476         0.932356         1.302492
 O         0.030927        -0.001164         0.485795
 C        -1.521080         0.410569         2.361951
 C        -1.998171         1.774058         2.846561
 C        -0.793719         2.811365         2.665124
 C         0.342624         1.966467         2.130965
 H        -3.617199         3.630158         1.440179
 H        -2.293999         1.294783        -0.044548
 H        -0.826196         2.559582        -0.236636
 H        -0.338031        -0.813050         0.770971
 H        -2.264738        -0.155205         1.797429
 H        -1.041190        -0.227551         3.126851
 H        -2.628167         1.859275         3.720021
 H        -0.779806         3.657818         3.343254
 H         1.088286         2.529621         1.523396
 H         0.864838         1.453652         2.906280
