19
Iteration:    96charge 0 multiplicity 1
 O        -2.548873         4.031096         1.708650
 C        -2.015131         2.703714         1.660458
 C        -1.551962         1.863697         0.392799
 C        -0.629071         0.907496         1.214784
 O         0.264902         0.038323         0.547695
 C        -1.556678         0.344851         2.189732
 C        -2.063401         1.683008         2.774948
 C        -0.835465         2.788300         2.664585
 C         0.278621         1.902946         2.108114
 H        -3.298036         4.079588         1.045811
 H        -2.395630         1.305740        -0.097023
 H        -1.066388         2.575961        -0.279537
 H         0.499786        -0.649996         1.227769
 H        -2.370994        -0.386309         1.844202
 H        -1.206021        -0.233992         3.038225
 H        -2.642567         1.701275         3.679538
 H        -0.789504         3.762564         3.128672
 H         1.108331         2.433867         1.495457
 H         0.865791         1.382797         2.862886
