19
Iteration:  2768charge 0 multiplicity 1
 O        -2.583579         3.945222         1.563302
 C        -1.879397         2.673661         1.602448
 C        -1.407498         1.774096         0.439012
 C        -0.557276         0.939064         1.268156
 O         0.043189        -0.014854         0.479113
 C        -1.609390         0.502265         2.296861
 C        -1.995580         1.733934         2.844285
 C        -0.911129         2.731660         2.785434
 C         0.337758         2.025657         2.110632
 H        -3.366217         3.997765         1.002329
 H        -2.137008         1.148757        -0.175456
 H        -0.772831         2.371032        -0.347118
 H         0.359453        -0.800722         1.104762
 H        -2.469012        -0.040038         1.788944
 H        -1.191674        -0.272657         2.969864
 H        -2.844541         1.744498         3.579318
 H        -0.915753         3.720571         3.199100
 H         0.867238         2.572790         1.418226
 H         1.067875         1.516435         2.733610
