19
Iteration:   624charge 0 multiplicity 1
 O        -2.793066         3.926397         1.605986
 C        -1.863625         2.872302         1.639726
 C        -1.205538         2.014921         0.494658
 C        -0.570349         0.981897         1.346645
 O         0.132144        -0.006736         0.509770
 C        -1.700232         0.341499         2.044826
 C        -2.181533         1.713774         2.700532
 C        -0.863504         2.619087         2.804262
 C         0.364124         1.793017         2.244264
 H        -2.772658         4.433891         0.750626
 H        -1.987708         1.590869        -0.170239
 H        -0.446727         2.545638        -0.132125
 H         1.100216         0.331823         0.361069
 H        -2.456428        -0.123241         1.444007
 H        -1.482515        -0.434635         2.823273
 H        -2.986497         1.741810         3.468819
 H        -0.547292         3.192510         3.682409
 H         1.234903         2.332541         1.852689
 H         0.833359         1.039587         2.885805
