19
Iteration:  4092
 O        -2.901932         3.747765         1.418553
 C        -1.855755         2.802144         1.722689
 C        -1.494324         1.930576         0.480220
 C        -0.667592         0.914021         1.221625
 O         0.096893        -0.097424         0.497439
 C        -1.608674         0.498377         2.420058
 C        -1.985908         1.939564         2.867126
 C        -0.644421         2.783178         2.568605
 C         0.476406         1.787682         2.047520
 H        -3.094960         4.159880         2.320571
 H        -2.476211         1.664788         0.067139
 H        -0.885163         2.464296        -0.338574
 H         0.923771        -0.063434         0.964109
 H        -2.522292        -0.123628         2.107593
 H        -1.092342         0.002755         3.383028
 H        -2.589017         2.300264         3.671501
 H        -0.464785         3.566865         3.311484
 H         1.174679         2.120802         1.249101
 H         0.938107         1.031455         2.770595
