19
Iteration:  3383
 O        -2.765419         3.830749         1.574138
 C        -1.821774         2.789193         1.647543
 C        -1.396255         1.899354         0.444509
 C        -0.563747         0.839157         1.340524
 O         0.136359        -0.093514         0.464326
 C        -1.647419         0.445383         2.335363
 C        -2.083787         1.828635         2.789861
 C        -0.792747         2.731630         2.772204
 C         0.312810         1.954433         2.095968
 H        -2.862877         4.137383         0.651020
 H        -2.299296         1.704350        -0.171805
 H        -0.632966         2.466914        -0.250143
 H         0.807081         0.429088         0.060729
 H        -2.459175        -0.107538         1.783878
 H        -1.307367        -0.215853         3.216841
 H        -2.747375         1.869152         3.680191
 H        -0.655540         3.584408         3.475953
 H         0.741683         2.476908         1.243114
 H         1.068199         1.398949         2.703430
