19
Iteration:    27charge 0 multiplicity 1
 O        -2.847653         3.741314         1.397523
 C        -1.938973         2.699231         1.698313
 C        -1.309965         2.070666         0.411725
 C        -0.475789         1.001856         1.245116
 O        -0.065860        -0.079693         0.350088
 C        -1.539196         0.512145         2.381834
 C        -1.974060         1.821773         2.867397
 C        -0.765485         2.725593         2.781969
 C         0.388023         1.832708         2.261093
 H        -3.542665         3.677180         2.069526
 H        -2.079220         1.513811        -0.178203
 H        -0.689171         2.762597        -0.229687
 H         0.615948         0.226370        -0.233625
 H        -2.397899        -0.061693         2.029700
 H        -1.062620        -0.238190         3.066740
 H        -2.715818         1.830716         3.689641
 H        -0.595447         3.689938         3.298377
 H         1.270529         2.307463         1.806396
 H         0.865964         1.136342         3.052023
