19
Iteration:  3246charge 0 multiplicity 1
 O        -2.701448         3.936452         1.559646
 C        -1.916017         2.773730         1.668714
 C        -1.386839         2.006977         0.463525
 C        -0.544787         0.911261         1.318810
 O         0.032878        -0.156078         0.597243
 C        -1.552321         0.333953         2.275100
 C        -2.101169         1.772479         2.749855
 C        -0.800520         2.723853         2.645365
 C         0.380785         1.959061         2.085796
 H        -3.650042         3.631717         1.506780
 H        -2.067008         1.500780        -0.306287
 H        -0.831895         2.776510        -0.140229
 H         0.911883         0.201670         0.164985
 H        -2.207628        -0.358194         1.781212
 H        -1.163670        -0.188618         3.096250
 H        -2.738248         1.870502         3.662923
 H        -0.733392         3.612029         3.296045
 H         0.858065         2.656655         1.260393
 H         1.042910         1.433043         2.798651
