19
Iteration:  1367
 O        -2.782854         3.821669         1.649343
 C        -1.798436         2.721242         1.605174
 C        -1.304229         1.965071         0.385797
 C        -0.553874         0.925918         1.285128
 O         0.081324        -0.070245         0.636543
 C        -1.659199         0.470455         2.241965
 C        -2.065519         1.788247         2.798468
 C        -0.782458         2.711112         2.690302
 C         0.311643         1.866672         2.147457
 H        -2.644420         4.574740         1.008145
 H        -2.148759         1.570471        -0.288043
 H        -0.798003         2.617910        -0.296894
 H         0.162213         0.160496        -0.354531
 H        -2.498872         0.019495         1.734971
 H        -1.273770        -0.206406         3.051343
 H        -2.922696         1.915778         3.494398
 H        -0.699208         3.611825         3.265057
 H         0.929310         2.467682         1.366084
 H         1.018583         1.252082         2.722630
