19
Iteration:  3982
 O        -2.767241         3.798065         1.487334
 C        -1.919416         2.723517         1.608829
 C        -1.437981         1.852391         0.419904
 C        -0.576941         0.959366         1.279772
 O         0.086540        -0.004382         0.461165
 C        -1.597445         0.521598         2.367579
 C        -1.973837         1.884794         2.943871
 C        -0.749227         2.783135         2.609506
 C         0.421332         1.870306         2.136160
 H        -3.554520         3.544343         1.962713
 H        -2.129811         1.197103        -0.103258
 H        -0.920417         2.602144        -0.213988
 H        -0.010260        -0.954336         0.721237
 H        -2.475749        -0.031411         1.994982
 H        -1.238597        -0.154934         3.115948
 H        -2.752539         2.258929         3.662195
 H        -0.610236         3.746291         3.079210
 H         1.248035         2.116723         1.481027
 H         1.016727         1.244024         2.840323
