19
Iteration:   798
 O        -2.595454         3.922991         1.490672
 C        -1.911897         2.741747         1.699068
 C        -1.362040         2.046499         0.506951
 C        -0.531477         0.917456         1.314843
 O         0.100279         0.052756         0.477085
 C        -1.584648         0.393223         2.190043
 C        -2.174903         1.733527         2.748980
 C        -0.860084         2.641493         2.740909
 C         0.230610         1.771286         2.282891
 H        -2.815373         3.928216         0.575703
 H        -2.169541         1.743654        -0.216326
 H        -0.623480         2.720700        -0.058411
 H         0.884490         0.376763         0.046000
 H        -2.246802        -0.288469         1.616751
 H        -1.090164        -0.238658         2.991354
 H        -2.801725         1.678079         3.634716
 H        -0.852994         3.378177         3.528004
 H         0.947270         2.439315         1.668067
 H         0.696815         1.110300         3.041991
