19
Iteration:   622
 O        -2.804436         3.923547         1.630363
 C        -1.857183         2.883856         1.617508
 C        -1.205173         2.021878         0.494968
 C        -0.577658         0.984847         1.327247
 O         0.144118        -0.025091         0.528795
 C        -1.698533         0.339171         2.037850
 C        -2.179554         1.725495         2.684882
 C        -0.859971         2.624253         2.817636
 C         0.352974         1.779052         2.251256
 H        -2.697654         4.335916         0.767294
 H        -2.056704         1.570974        -0.169455
 H        -0.454756         2.566754        -0.181914
 H         1.057554         0.300361         0.369246
 H        -2.474279        -0.089839         1.370567
 H        -1.481160        -0.410811         2.804088
 H        -2.906470         1.727773         3.470726
 H        -0.543705         3.224569         3.664351
 H         1.185741         2.411857         1.826075
 H         0.903420         1.087011         2.875554
