19
Iteration:  4130
 O        -2.774556         3.879880         1.476282
 C        -1.878632         2.759411         1.651522
 C        -1.434958         1.855949         0.503706
 C        -0.560711         0.888554         1.289879
 O        -0.107676        -0.121319         0.424243
 C        -1.536248         0.430045         2.443923
 C        -1.924366         1.816954         2.945248
 C        -0.708371         2.836683         2.595779
 C         0.420531         2.014908         2.027787
 H        -3.599028         3.498498         1.104692
 H        -2.169447         1.294116        -0.100891
 H        -0.785604         2.426626        -0.116990
 H         0.437189        -0.780050         1.023423
 H        -2.365100        -0.041311         1.941964
 H        -1.020777        -0.228474         3.092094
 H        -2.544309         1.951813         3.897402
 H        -0.805345         3.756426         3.207133
 H         1.040254         2.648154         1.360233
 H         1.072356         1.512441         2.793893
