19
Iteration:  1755charge 0 multiplicity 1
 O        -2.751180         3.932549         1.556690
 C        -1.933122         2.770649         1.665822
 C        -1.402124         1.979923         0.362873
 C        -0.598322         0.898065         1.227152
 O         0.132757        -0.150859         0.614924
 C        -1.602348         0.400948         2.312404
 C        -2.094401         1.755278         2.804187
 C        -0.786175         2.729199         2.660362
 C         0.298292         1.881658         2.037777
 H        -2.079095         4.535611         1.961743
 H        -2.112632         1.643833        -0.388108
 H        -0.535677         2.484221        -0.112241
 H         1.069324         0.254712         0.530264
 H        -2.463508        -0.295793         1.941556
 H        -1.125036        -0.157878         3.135480
 H        -2.995305         1.850543         3.431437
 H        -0.683275         3.494183         3.473226
 H         0.968642         2.678463         1.648829
 H         0.932939         1.408949         2.892368
