19
Iteration:  3261charge 0 multiplicity 1
 O        -2.678160         3.920988         1.447112
 C        -2.028615         2.676347         1.657517
 C        -1.406787         2.040177         0.452750
 C        -0.502753         1.015796         1.191244
 O         0.039512        -0.151197         0.567972
 C        -1.551345         0.456163         2.311974
 C        -1.942521         1.718425         2.889466
 C        -0.862023         2.723205         2.688307
 C         0.316872         1.867677         2.101123
 H        -3.613661         3.817656         1.758282
 H        -2.212449         1.608281        -0.127501
 H        -0.696243         2.723635        -0.155472
 H         0.942911        -0.048924         0.379392
 H        -2.422936         0.005364         1.809372
 H        -0.877789        -0.198466         2.952504
 H        -2.667764         1.855350         3.656826
 H        -0.658872         3.506232         3.407427
 H         1.123931         2.431798         1.654394
 H         0.699826         1.406842         3.020974
