19
Iteration:  2868
 O        -2.776498         3.983352         1.588403
 C        -1.893185         2.808678         1.625595
 C        -1.314449         2.018305         0.392277
 C        -0.523935         0.919556         1.233516
 O         0.083916        -0.172526         0.524730
 C        -1.621706         0.432783         2.331158
 C        -2.028002         1.806792         2.795386
 C        -0.845159         2.648865         2.678567
 C         0.360876         1.910558         2.106129
 H        -3.592566         3.510191         1.433245
 H        -2.190033         1.404106        -0.087577
 H        -0.584627         2.634378        -0.290181
 H         0.754474        -0.567237         1.111810
 H        -2.381304        -0.267408         1.915923
 H        -1.101797        -0.224634         3.086598
 H        -2.787979         1.951308         3.534171
 H        -0.857678         3.528776         3.363276
 H         0.919979         2.578750         1.469102
 H         0.964598         1.339219         2.809608
