19
Iteration:    53
 O        -2.839946         3.834773         1.464983
 C        -1.860583         2.848346         1.708621
 C        -1.366214         2.002591         0.546122
 C        -0.599111         0.929287         1.318371
 O         0.084325        -0.028388         0.497798
 C        -1.582348         0.357144         2.250007
 C        -1.983858         1.782658         2.763187
 C        -0.733511         2.728169         2.736005
 C         0.373108         1.924745         2.149337
 H        -3.636699         3.264510         1.527266
 H        -2.194511         1.742307        -0.134142
 H        -0.490167         2.403003         0.051731
 H        -0.435293        -0.257168        -0.277065
 H        -2.342726        -0.350680         1.766437
 H        -1.038052        -0.346697         2.851185
 H        -2.695077         1.917080         3.565149
 H        -0.516066         3.497629         3.460996
 H         1.134487         2.333281         1.403432
 H         1.010778         1.428125         2.835241
