19
Iteration:  3210charge 0 multiplicity 1
 O        -2.698896         3.900803         1.609761
 C        -1.891545         2.717285         1.609639
 C        -1.497822         1.928560         0.369950
 C        -0.563024         0.939821         1.256075
 O         0.212471        -0.099244         0.589575
 C        -1.598732         0.429526         2.283171
 C        -2.036239         1.857927         2.806085
 C        -0.792791         2.753271         2.713723
 C         0.277916         1.844779         2.174217
 H        -3.322218         3.676277         0.879862
 H        -2.326131         1.375089        -0.130975
 H        -0.984504         2.571243        -0.283585
 H         0.102695         0.171976        -0.383164
 H        -2.417337        -0.154269         1.771399
 H        -1.078978        -0.263186         2.994548
 H        -2.682219         2.079466         3.636959
 H        -0.610306         3.696907         3.202045
 H         1.125833         2.440485         1.698095
 H         0.884087         1.326717         2.993915
