19
Iteration:    10charge 0 multiplicity 1
 O        -2.768688         3.760676         1.447904
 C        -1.946925         2.667298         1.696255
 C        -1.429959         1.970803         0.491739
 C        -0.583411         0.938195         1.227038
 O         0.020064        -0.010977         0.357648
 C        -1.532267         0.464293         2.272100
 C        -2.013471         1.888060         2.850224
 C        -0.738179         2.696797         2.750990
 C         0.386018         1.884407         2.192906
 H        -3.096013         4.040043         2.299354
 H        -2.130046         1.531702        -0.230691
 H        -0.799743         2.717542         0.056381
 H         0.812471        -0.204052         0.874743
 H        -2.295241        -0.250947         1.818321
 H        -1.025441        -0.102544         3.038221
 H        -2.827972         2.021903         3.548044
 H        -0.744584         3.603328         3.361272
 H         1.126620         2.630318         1.779305
 H         0.924821         1.295644         2.886603
