19
Iteration:  4338
 O        -2.740211         3.903633         1.591530
 C        -1.915866         2.703697         1.648923
 C        -1.604841         1.807425         0.517866
 C        -0.551535         0.885862         1.306747
 O        -0.022948        -0.173455         0.465097
 C        -1.470649         0.472973         2.464343
 C        -1.823067         1.841939         2.895784
 C        -0.760237         2.879020         2.510102
 C         0.377248         2.018780         1.952614
 H        -3.229341         4.039384         0.745566
 H        -2.502315         1.192223         0.278466
 H        -1.267668         2.388782        -0.325795
 H         0.371209        -0.784489         1.046898
 H        -2.288338        -0.134138         2.009510
 H        -1.022039        -0.007069         3.317646
 H        -2.502517         2.011057         3.669358
 H        -0.726310         3.804581         3.080746
 H         1.025886         2.305553         1.085660
 H         1.015243         1.587166         2.741056
