19
Iteration:  1121charge 0 multiplicity 1
 O        -2.795222         3.864891         1.567113
 C        -1.875156         2.818631         1.660970
 C        -1.309693         2.024017         0.338719
 C        -0.550358         0.977113         1.188021
 O        -0.003805        -0.213568         0.531003
 C        -1.560844         0.447899         2.262955
 C        -1.953234         1.807666         2.823995
 C        -0.818290         2.772149         2.811092
 C         0.328429         1.851674         2.179219
 H        -3.577422         3.432064         1.122810
 H        -2.110083         1.642251        -0.281951
 H        -0.618459         2.694025        -0.258129
 H         0.939839        -0.215854         0.668557
 H        -2.501365         0.114681         1.727010
 H        -1.253817        -0.352407         2.928919
 H        -2.889151         1.911834         3.443617
 H        -0.710753         3.628104         3.505215
 H         1.049029         2.474290         1.601444
 H         0.998534         1.259861         2.907344
