19
Iteration:  1676charge 0 multiplicity 1
 O        -2.732725         3.764188         1.358822
 C        -1.861190         2.674325         1.697744
 C        -1.281239         2.067478         0.483206
 C        -0.581981         0.988192         1.262360
 O         0.044434         0.063956         0.450129
 C        -1.660524         0.415165         2.421737
 C        -2.059607         1.820519         2.843650
 C        -0.724283         2.651209         2.876489
 C         0.303662         1.816421         2.137827
 H        -2.457400         3.951389         0.427678
 H        -2.098220         1.673211        -0.207310
 H        -0.606478         2.711929        -0.073609
 H        -0.606939        -0.177865        -0.343684
 H        -2.548336        -0.239389         2.151306
 H        -0.930205        -0.014206         3.221443
 H        -2.894003         2.030765         3.500801
 H        -0.608083         3.466240         3.544990
 H         0.969346         2.387038         1.404176
 H         0.850523         1.160743         2.870957
