19
Iteration:  2231
 O        -2.739141         4.003507         1.529614
 C        -1.896924         2.832055         1.650376
 C        -1.588372         1.854802         0.478724
 C        -0.531424         0.897458         1.297007
 O         0.198352        -0.088048         0.619420
 C        -1.590362         0.350583         2.337661
 C        -1.924298         1.776133         2.792694
 C        -0.790626         2.672661         2.651874
 C         0.387575         1.982251         2.051966
 H        -3.636872         3.841126         1.221159
 H        -2.526164         1.296541         0.044618
 H        -1.110344         2.323001        -0.370984
 H        -0.208871        -0.165100        -0.187797
 H        -2.325216        -0.151720         1.746872
 H        -1.184163        -0.348269         3.112483
 H        -2.724857         1.850104         3.558204
 H        -0.658265         3.551102         3.271917
 H         0.941506         2.621354         1.400178
 H         0.987520         1.548481         2.815571
