19
Iteration:  3746charge 0 multiplicity 1
 O        -2.699106         3.825617         1.367244
 C        -1.878432         2.784297         1.734973
 C        -1.535371         1.819386         0.506417
 C        -0.545069         1.010135         1.263809
 O         0.031562        -0.128382         0.513488
 C        -1.559594         0.389568         2.336248
 C        -2.073287         1.809140         2.822344
 C        -0.789377         2.687294         2.728127
 C         0.374827         2.032680         2.054666
 H        -2.274505         4.534134         1.888494
 H        -2.521859         1.410349         0.253981
 H        -1.043599         2.551517        -0.136429
 H         0.940051        -0.060374         0.565305
 H        -2.267432        -0.281197         1.869551
 H        -0.934398        -0.112986         3.072122
 H        -2.818037         2.043340         3.527493
 H        -0.634984         3.399953         3.526903
 H         0.881936         2.823554         1.412043
 H         1.095564         1.537570         2.671846
