19
Iteration:  1974charge 0 multiplicity 1
 O        -2.785530         3.934242         1.526333
 C        -1.964731         2.723496         1.648874
 C        -1.398970         2.010497         0.447656
 C        -0.550063         0.916956         1.260489
 O         0.241234        -0.152740         0.552258
 C        -1.589529         0.437949         2.329371
 C        -1.986215         1.803528         2.846322
 C        -0.768748         2.741876         2.645182
 C         0.327115         1.927742         2.068314
 H        -3.608109         3.672360         1.965956
 H        -2.177021         1.646003        -0.315375
 H        -0.820176         2.668477        -0.299536
 H        -0.399754        -0.806700         0.422047
 H        -2.433681        -0.013510         1.676850
 H        -1.324376        -0.254146         3.150757
 H        -2.674824         1.984529         3.685951
 H        -0.797066         3.522233         3.426000
 H         0.984448         2.497902         1.380945
 H         0.821309         1.239060         2.804718
