19
Iteration:   848
 O        -2.719763         3.839259         1.738956
 C        -1.857126         2.736733         1.632528
 C        -1.279553         2.066394         0.453973
 C        -0.594184         1.015670         1.241978
 O         0.167110        -0.156311         0.694501
 C        -1.750899         0.414139         2.070376
 C        -2.132496         1.746770         2.673148
 C        -0.838706         2.688059         2.719862
 C         0.355607         1.881240         2.135743
 H        -2.834639         4.358645         0.922112
 H        -1.988660         1.674196        -0.266717
 H        -0.658107         2.757865        -0.105226
 H         0.996273         0.273353         0.435177
 H        -2.576268        -0.035555         1.467472
 H        -1.227285        -0.265317         2.701659
 H        -3.105727         1.869447         3.231899
 H        -0.801416         3.667112         3.230180
 H         1.112315         2.375587         1.564631
 H         0.767545         1.200640         2.880679
