19
Iteration:   910charge 0 multiplicity 1
 O        -2.653839         3.832059         1.300718
 C        -1.851446         2.776311         1.625460
 C        -1.347270         2.019347         0.510862
 C        -0.579139         0.974046         1.342236
 O         0.034303         0.043227         0.428124
 C        -1.612389         0.418825         2.290480
 C        -2.097512         1.726193         2.771189
 C        -0.845778         2.589415         2.828539
 C         0.311790         1.828658         2.311735
 H        -2.619593         4.552385         1.959385
 H        -2.083367         1.373944        -0.025745
 H        -0.691798         2.674466        -0.181869
 H         0.474934         0.606534        -0.208534
 H        -2.340166        -0.243147         1.818916
 H        -1.110688        -0.354802         2.947049
 H        -2.845284         1.806479         3.604507
 H        -0.842374         3.403402         3.585141
 H         1.091618         2.453681         1.750574
 H         0.811407         1.126359         3.025524
