19
Iteration:  2861
 O        -2.791681         3.963580         1.600906
 C        -1.857437         2.782414         1.622066
 C        -1.307990         1.972135         0.427559
 C        -0.509338         0.945123         1.314981
 O         0.061406        -0.193022         0.500396
 C        -1.639835         0.409891         2.289208
 C        -2.061642         1.817719         2.731024
 C        -0.828016         2.702470         2.706446
 C         0.359600         1.952279         2.104919
 H        -3.678199         3.545609         1.507831
 H        -1.972490         1.441799        -0.213543
 H        -0.755488         2.518650        -0.229447
 H         0.728070        -0.589360         1.000329
 H        -2.456195        -0.186692         1.841046
 H        -1.074600        -0.236541         3.068578
 H        -2.733805         2.177561         3.519564
 H        -0.701364         3.428560         3.513605
 H         1.035023         2.609822         1.400216
 H         1.101386         1.382356         2.725503
