19
Iteration:   811
 O        -2.718865         4.070778         1.548182
 C        -1.940104         2.823884         1.668525
 C        -1.360123         2.020911         0.492189
 C        -0.563607         1.008863         1.216557
 O         0.166790        -0.071703         0.553779
 C        -1.631524         0.331763         2.190791
 C        -2.147416         1.647750         2.711095
 C        -0.878846         2.605718         2.786214
 C         0.370160         1.772130         2.239578
 H        -2.871991         4.224233         0.562642
 H        -2.077883         1.391273        -0.102676
 H        -0.642200         2.628419        -0.206828
 H         0.975264         0.426868         0.189075
 H        -2.384614        -0.238653         1.685529
 H        -1.204433        -0.299035         3.015999
 H        -2.904727         1.817268         3.433977
 H        -0.714778         3.373396         3.529008
 H         1.175716         2.398961         1.768654
 H         0.969209         1.162703         2.952026
