19
Iteration:  4084charge 0 multiplicity 1
 O        -2.902883         3.809128         1.462454
 C        -1.950221         2.814309         1.651980
 C        -1.464572         1.960590         0.457181
 C        -0.627854         0.850213         1.262164
 O         0.105378        -0.100268         0.504641
 C        -1.613867         0.490687         2.457036
 C        -1.933637         1.890196         2.856928
 C        -0.705025         2.818846         2.597841
 C         0.427450         1.748317         2.001769
 H        -2.905461         4.539889         2.136996
 H        -2.351706         1.551570        -0.026477
 H        -0.816207         2.341658        -0.317702
 H         1.016097        -0.118867         0.899007
 H        -2.376127        -0.176271         2.164373
 H        -0.897802         0.048020         3.115468
 H        -2.482237         2.156918         3.705603
 H        -0.392344         3.461586         3.420406
 H         1.094197         2.091664         1.190919
 H         0.945944         1.280677         2.918501
