19
Iteration:  3409
 O        -2.801800         3.786472         1.469916
 C        -1.908984         2.718496         1.614561
 C        -1.434744         1.948997         0.445268
 C        -0.533060         0.969229         1.319800
 O         0.067587         0.044323         0.446707
 C        -1.583733         0.436004         2.408011
 C        -1.984324         1.830061         2.896504
 C        -0.802499         2.744035         2.613923
 C         0.345601         1.768457         2.190011
 H        -2.310607         4.549843         1.106584
 H        -2.266748         1.571604        -0.194775
 H        -0.874511         2.510139        -0.253900
 H         1.002485         0.224217         0.332555
 H        -2.516270        -0.113329         2.012991
 H        -1.104704        -0.309297         3.082281
 H        -2.782848         1.986351         3.597245
 H        -0.722357         3.547790         3.329121
 H         1.158527         2.092078         1.640807
 H         0.652084         1.063233         2.934262
