19
Iteration:  2545
 O        -2.757228         3.867375         1.428853
 C        -1.908794         2.774399         1.659915
 C        -1.358876         1.988225         0.516604
 C        -0.481215         0.923905         1.291614
 O         0.058995        -0.147985         0.507380
 C        -1.624042         0.433386         2.321216
 C        -1.983012         1.812567         2.829925
 C        -0.832881         2.807085         2.622117
 C         0.403581         1.871974         2.193552
 H        -3.665556         3.687705         1.815533
 H        -2.075483         1.372890         0.031318
 H        -0.740966         2.813718         0.008272
 H        -0.462615        -0.292496        -0.327794
 H        -2.427545        -0.274255         1.885087
 H        -1.071280        -0.257411         2.969283
 H        -2.673468         1.966044         3.706954
 H        -0.741145         3.638809         3.325835
 H         1.100790         2.360904         1.508744
 H         1.032928         1.536421         2.985794
