19
Iteration:  3007charge 0 multiplicity 1
 O        -2.713226         3.872515         1.562131
 C        -1.813006         2.811142         1.618706
 C        -1.370366         1.915443         0.505360
 C        -0.565428         0.925468         1.332269
 O         0.143304         0.012627         0.529123
 C        -1.736360         0.373236         2.225866
 C        -2.043504         1.834201         2.713641
 C        -0.751419         2.722436         2.736818
 C         0.313464         1.909843         2.102536
 H        -3.674370         3.717655         1.582686
 H        -2.250661         1.460227         0.089196
 H        -0.708819         2.238093        -0.335486
 H         0.506012        -0.787398         1.062692
 H        -2.584204        -0.078201         1.635082
 H        -1.312286        -0.433223         2.955371
 H        -2.899609         1.923182         3.340980
 H        -0.572792         3.518602         3.481366
 H         0.820857         2.506387         1.294593
 H         1.076123         1.283171         2.722056
