19
Iteration:   468
 O        -2.728595         3.885463         1.664084
 C        -1.817418         2.735167         1.552408
 C        -1.216787         2.118399         0.339919
 C        -0.552145         1.029452         1.215678
 O         0.109706        -0.086308         0.669717
 C        -1.735071         0.452226         2.081569
 C        -2.102015         1.733507         2.688733
 C        -0.841794         2.590486         2.785904
 C         0.317847         1.820706         2.298901
 H        -3.531350         3.526419         2.121694
 H        -2.009768         1.571830        -0.310070
 H        -0.529873         2.481231        -0.470331
 H         0.770992         0.322327         0.124489
 H        -2.542614        -0.123515         1.498557
 H        -1.170042        -0.151893         2.780940
 H        -3.043875         1.891654         3.257822
 H        -0.730662         3.480464         3.418925
 H         0.853042         2.690062         1.832084
 H         0.882466         1.165745         2.966588
