19
Iteration:  4997
 O        -2.607907         3.956676         1.340957
 C        -1.957231         2.773021         1.741016
 C        -1.537281         1.840712         0.469352
 C        -0.591671         0.905556         1.225421
 O        -0.024764        -0.149189         0.521343
 C        -1.385725         0.399203         2.342466
 C        -1.958446         1.745203         2.975359
 C        -0.797176         2.776064         2.776154
 C         0.306663         2.015632         1.954798
 H        -3.582155         3.922454         1.467355
 H        -2.395663         1.512444        -0.094277
 H        -0.982985         2.557827        -0.129506
 H         0.583181        -0.527038         1.110000
 H        -2.310125        -0.160835         1.954604
 H        -0.840312        -0.138914         3.067798
 H        -2.735438         1.760313         3.788020
 H        -0.703203         3.723639         3.412011
 H         0.818845         2.752802         1.255190
 H         0.998979         1.611926         2.660114
