19
Iteration:  2577charge 0 multiplicity 1
 O        -2.742615         3.792088         1.412968
 C        -1.829120         2.814289         1.683573
 C        -1.363397         1.963022         0.474843
 C        -0.606543         0.962049         1.208863
 O         0.123101        -0.001354         0.533805
 C        -1.630928         0.489846         2.336546
 C        -2.053341         1.870296         2.826643
 C        -0.755470         2.687859         2.763762
 C         0.309731         1.788387         2.112948
 H        -3.553913         3.492984         1.848703
 H        -2.046225         1.509611        -0.222149
 H        -0.720606         2.608019        -0.310696
 H        -0.202139        -0.859448         0.409995
 H        -2.408472        -0.243326         2.124600
 H        -0.850633         0.208046         2.981806
 H        -2.754945         2.068979         3.686877
 H        -0.483062         3.479528         3.459129
 H         0.854124         2.366256         1.373125
 H         0.905860         1.215714         2.721192
