19
Iteration:  3382
 O        -2.768209         3.838490         1.575198
 C        -1.820769         2.792883         1.642247
 C        -1.400953         1.903171         0.441046
 C        -0.555217         0.850536         1.343977
 O         0.135089        -0.101119         0.472875
 C        -1.645515         0.439119         2.333899
 C        -2.083024         1.826433         2.794092
 C        -0.802387         2.727245         2.772017
 C         0.318434         1.949938         2.091639
 H        -2.868827         4.114776         0.655923
 H        -2.316649         1.701811        -0.139169
 H        -0.614161         2.468542        -0.244300
 H         0.835041         0.417975         0.011782
 H        -2.448360        -0.059652         1.781340
 H        -1.308572        -0.205543         3.200040
 H        -2.757797         1.855937         3.672673
 H        -0.684330         3.542678         3.499084
 H         0.754947         2.496968         1.194967
 H         1.083981         1.389782         2.692405
