19
Iteration:  3360
 O        -2.757754         3.958990         1.555390
 C        -1.958581         2.758954         1.698845
 C        -1.429369         1.995776         0.468402
 C        -0.515791         0.982758         1.192575
 O         0.068114        -0.162522         0.718967
 C        -1.558606         0.401030         2.188494
 C        -2.025586         1.713403         2.784344
 C        -0.768295         2.663695         2.706621
 C         0.366693         1.954311         2.110685
 H        -3.136116         3.982665         0.643488
 H        -2.226111         1.397010        -0.028275
 H        -1.088329         2.789335        -0.368433
 H         0.496813         0.064176        -0.156419
 H        -2.262526        -0.243840         1.658164
 H        -0.952341        -0.256941         2.912072
 H        -2.782229         1.848879         3.593837
 H        -0.538228         3.515853         3.328428
 H         1.027147         2.631250         1.477394
 H         0.843967         1.287949         2.877435
