19
Iteration:  4984charge 0 multiplicity 1
 O        -2.696453         3.915552         1.334590
 C        -1.989143         2.745112         1.758271
 C        -1.508166         2.027454         0.583934
 C        -0.546774         0.987481         1.219129
 O        -0.025369        -0.220054         0.453535
 C        -1.472196         0.460087         2.426264
 C        -1.962054         1.789115         2.916767
 C        -0.828974         2.742807         2.685558
 C         0.430078         1.942777         2.003436
 H        -3.575033         3.605057         1.050301
 H        -2.307992         1.434230         0.115346
 H        -0.976468         2.627079        -0.196451
 H         0.680032        -0.638920         1.076193
 H        -2.205984        -0.321686         2.022997
 H        -0.849935        -0.098256         3.144986
 H        -2.447811         1.859706         3.865635
 H        -0.673162         3.585261         3.372700
 H         0.990440         2.533540         1.317017
 H         1.112147         1.353039         2.603598
