19
Iteration:  3800
 O        -2.834098         3.746207         1.568605
 C        -1.853051         2.780516         1.612535
 C        -1.478260         1.941555         0.427862
 C        -0.594441         0.985178         1.305831
 O         0.100807        -0.104990         0.486395
 C        -1.566194         0.500938         2.373255
 C        -2.016461         1.876831         2.770681
 C        -0.750404         2.782371         2.643968
 C         0.375546         1.781504         2.138552
 H        -2.609996         4.576957         1.064617
 H        -2.422436         1.433116         0.083066
 H        -1.146785         2.436129        -0.524100
 H         1.000038        -0.005556         0.698602
 H        -2.403504        -0.118761         2.000771
 H        -1.142800        -0.083192         3.305280
 H        -2.801448         1.991739         3.466865
 H        -0.552420         3.590313         3.323007
 H         1.252566         2.279314         1.628521
 H         0.826975         1.248025         2.910681
