19
Iteration:   308
 O        -2.827565         3.888878         1.548214
 C        -1.865541         2.822252         1.633008
 C        -1.251289         2.122174         0.461893
 C        -0.515724         0.891606         1.191058
 O         0.119836        -0.226360         0.453854
 C        -1.626997         0.518141         2.114470
 C        -2.074905         1.776273         2.809687
 C        -0.821898         2.731919         2.870926
 C         0.310258         1.802128         2.271750
 H        -3.716109         3.404504         1.604487
 H        -2.098719         1.890644        -0.262547
 H        -0.509856         2.747814        -0.077306
 H         1.067518        -0.056928         0.253936
 H        -2.449081         0.242201         1.458382
 H        -1.480986        -0.347332         2.793712
 H        -2.893531         1.695957         3.546523
 H        -0.560255         3.621546         3.444162
 H         1.120328         2.423557         1.944471
 H         0.672247         1.202139         3.137134
