19
Iteration:  2998charge 0 multiplicity 1
 O        -2.747055         3.894400         1.629270
 C        -1.855904         2.840378         1.606672
 C        -1.388553         1.908005         0.468684
 C        -0.499278         0.877011         1.329433
 O         0.154744        -0.088125         0.505552
 C        -1.691524         0.380049         2.212079
 C        -2.085943         1.844194         2.727192
 C        -0.807759         2.778823         2.743701
 C         0.366433         1.919809         2.103334
 H        -3.551438         3.332745         1.473352
 H        -2.228197         1.740868        -0.120745
 H        -0.757937         2.400907        -0.347696
 H         0.552807        -0.853896         1.090578
 H        -2.456736         0.014303         1.484132
 H        -1.693731        -0.342495         2.991254
 H        -2.821857         2.312307         3.387276
 H        -0.472600         3.465308         3.534643
 H         0.961374         2.387330         1.395604
 H         1.175223         1.469740         2.774086
