19
Iteration:  1520charge 0 multiplicity 1
 O        -2.881250         3.786165         1.424363
 C        -1.837613         2.783984         1.701431
 C        -1.323467         1.966461         0.501890
 C        -0.534070         0.905577         1.206917
 O         0.174760        -0.019489         0.423645
 C        -1.739228         0.522872         2.401858
 C        -2.050426         1.901885         2.875414
 C        -0.779996         2.665092         2.811868
 C         0.387720         1.769031         2.097616
 H        -2.349591         4.400809         0.884027
 H        -2.222145         1.533518         0.017909
 H        -0.640496         2.519777        -0.078277
 H        -0.465425        -0.443487        -0.099193
 H        -2.439271        -0.157032         1.898774
 H        -1.240279        -0.136700         3.221407
 H        -2.727304         2.235907         3.641315
 H        -0.546929         3.367468         3.646427
 H         1.115092         2.288776         1.365289
 H         1.017450         1.344253         2.880786
