19
Iteration:  2538
 O        -2.743289         3.888519         1.449308
 C        -1.949525         2.734715         1.695286
 C        -1.337381         1.931187         0.519976
 C        -0.528652         0.916561         1.273910
 O         0.087828        -0.182550         0.520884
 C        -1.609335         0.487007         2.247331
 C        -2.039672         1.804651         2.860791
 C        -0.748761         2.823730         2.620649
 C         0.365396         1.915614         2.173881
 H        -3.654546         3.680941         1.723584
 H        -2.208502         1.394212         0.009638
 H        -0.872943         2.599644        -0.123475
 H        -0.349508        -0.061199        -0.419287
 H        -2.304772        -0.255871         1.760121
 H        -1.149519        -0.091960         3.107400
 H        -2.580806         1.852275         3.782988
 H        -0.620888         3.665891         3.270326
 H         1.131214         2.540602         1.670654
 H         0.954011         1.417887         3.101849
