19
Iteration:  4257
 O        -2.783225         3.816668         1.396647
 C        -1.953475         2.743593         1.650283
 C        -1.466625         1.887214         0.515770
 C        -0.479146         1.021003         1.261395
 O        -0.269443        -0.246310         0.510994
 C        -1.339076         0.481849         2.477268
 C        -1.970398         1.838836         2.878341
 C        -0.694422         2.836891         2.612029
 C         0.466656         1.984325         2.051988
 H        -3.667311         3.659789         1.750170
 H        -2.201020         1.234781         0.031959
 H        -1.155012         2.527162        -0.367434
 H         0.580802        -0.144216         0.046722
 H        -2.127131        -0.250844         2.249297
 H        -0.841932        -0.061170         3.347548
 H        -2.603455         2.158738         3.766744
 H        -0.406795         3.608414         3.340985
 H         1.004202         2.526791         1.316986
 H         1.163591         1.487754         2.735378
