19
Iteration:  2407charge 0 multiplicity 1
 O        -2.831403         3.848599         1.476868
 C        -1.938417         2.758469         1.654705
 C        -1.375325         1.978364         0.490697
 C        -0.603491         0.900607         1.243413
 O         0.147832        -0.156451         0.581520
 C        -1.636965         0.430852         2.377687
 C        -1.888365         1.855970         2.891343
 C        -0.753129         2.811889         2.608939
 C         0.345141         1.862845         2.037731
 H        -3.738574         3.637048         1.666102
 H        -2.204266         1.529211        -0.206189
 H        -0.571775         2.516800        -0.054691
 H         0.196907         0.188190        -0.307089
 H        -2.533544         0.080032         1.962639
 H        -1.172235        -0.294609         3.052347
 H        -2.583928         2.147691         3.707660
 H        -0.505379         3.570535         3.375380
 H         1.092276         2.331460         1.446945
 H         0.841691         1.427870         2.881125
