19
Iteration:   357charge 0 multiplicity 1
 O        -2.630399         4.023382         1.563132
 C        -1.919171         2.785044         1.681756
 C        -1.278529         2.067909         0.429307
 C        -0.508606         0.887586         1.225076
 O         0.246594        -0.090773         0.540220
 C        -1.674585         0.365510         2.166266
 C        -2.174070         1.708261         2.787942
 C        -0.925342         2.634296         2.785993
 C         0.258530         1.799705         2.188844
 H        -3.564884         3.929625         1.722202
 H        -2.026343         1.557630        -0.231103
 H        -0.611917         2.850498        -0.019047
 H         0.667312         0.183700        -0.307365
 H        -2.599975        -0.068052         1.691331
 H        -1.164023        -0.323276         2.835592
 H        -2.970332         1.924717         3.472406
 H        -0.933615         3.492431         3.435491
 H         0.889799         2.542652         1.629260
 H         0.800384         1.406175         3.050403
