19
Iteration:   913charge 0 multiplicity 1
 O        -2.650344         3.864566         1.290552
 C        -1.862598         2.745552         1.625668
 C        -1.346447         2.010702         0.527550
 C        -0.581336         0.929791         1.325153
 O         0.030204         0.072894         0.455112
 C        -1.617580         0.432666         2.255844
 C        -2.063895         1.722387         2.795426
 C        -0.869578         2.563930         2.821631
 C         0.335027         1.844537         2.309319
 H        -2.606899         4.444347         2.051295
 H        -2.084732         1.412544        -0.068753
 H        -0.638410         2.610654        -0.162153
 H         0.417844         0.603654        -0.228552
 H        -2.368154        -0.263214         1.868850
 H        -1.116448        -0.241451         2.937370
 H        -2.803807         1.825865         3.618921
 H        -0.951587         3.445927         3.470416
 H         1.021122         2.419481         1.743787
 H         0.802584         1.146345         3.013989
