19
Iteration:  1900charge 0 multiplicity 1
 O        -2.730072         3.975321         1.577278
 C        -1.970643         2.794960         1.626011
 C        -1.443347         1.918302         0.478118
 C        -0.505252         0.903399         1.278780
 O         0.109102        -0.125597         0.525091
 C        -1.564462         0.380898         2.408753
 C        -2.040676         1.798801         2.824218
 C        -0.842520         2.738464         2.639090
 C         0.345703         1.839059         2.028392
 H        -3.103153         3.938032         0.688336
 H        -2.199862         1.538665        -0.150081
 H        -0.734323         2.559282        -0.107638
 H         0.948415         0.385569         0.150557
 H        -2.462227        -0.138902         1.890875
 H        -1.215103        -0.376150         3.108027
 H        -2.734839         2.001199         3.667194
 H        -0.669373         3.518847         3.420168
 H         1.083113         2.439147         1.472827
 H         0.948271         1.449753         2.937895
