19
Iteration:  4545
 O        -2.898178         3.713770         1.584750
 C        -1.862992         2.751214         1.653448
 C        -1.536232         1.902876         0.447692
 C        -0.585485         0.978594         1.218050
 O         0.010969        -0.166747         0.553763
 C        -1.500589         0.469468         2.418771
 C        -1.897530         1.899016         2.885262
 C        -0.672606         2.881479         2.571696
 C         0.382228         1.901219         1.954423
 H        -2.491074         4.443227         1.094167
 H        -2.484549         1.439235         0.175047
 H        -1.081713         2.429456        -0.355791
 H         0.422510        -0.647985         1.266891
 H        -2.416828        -0.043210         2.055822
 H        -0.994806        -0.205666         3.141349
 H        -2.625671         2.181590         3.719997
 H        -0.413480         3.774267         3.136303
 H         0.940694         2.418031         1.199391
 H         1.085262         1.445976         2.668240
