19
Iteration:   356
 O        -2.633360         4.013091         1.566314
 C        -1.915140         2.788570         1.684859
 C        -1.281791         2.072903         0.429579
 C        -0.515788         0.894903         1.240807
 O         0.244403        -0.091632         0.547557
 C        -1.676483         0.366902         2.158071
 C        -2.176160         1.703952         2.780804
 C        -0.919723         2.637926         2.776278
 C         0.269581         1.799755         2.183886
 H        -3.554988         3.920667         1.748820
 H        -2.016182         1.601114        -0.264194
 H        -0.595231         2.857814        -0.032753
 H         0.642638         0.183872        -0.270429
 H        -2.564720        -0.077473         1.673837
 H        -1.179391        -0.323204         2.848696
 H        -2.991873         1.923399         3.467047
 H        -0.948954         3.512541         3.428361
 H         0.873633         2.513991         1.621611
 H         0.828548         1.362571         3.021065
