19
Iteration:  4256
 O        -2.785256         3.809574         1.392869
 C        -1.947089         2.747114         1.650364
 C        -1.464090         1.886165         0.514329
 C        -0.487876         1.023043         1.260275
 O        -0.271125        -0.249666         0.513070
 C        -1.339601         0.484637         2.481123
 C        -1.980012         1.833977         2.877274
 C        -0.682837         2.844051         2.615336
 C         0.462589         1.980989         2.054767
 H        -3.636413         3.650887         1.790494
 H        -2.208213         1.252908         0.014546
 H        -1.184318         2.565081        -0.357557
 H         0.603026        -0.116077         0.010418
 H        -2.103390        -0.295255         2.235534
 H        -0.828651        -0.043086         3.342862
 H        -2.588518         2.174771         3.725496
 H        -0.371856         3.600377         3.341950
 H         1.010393         2.550073         1.320270
 H         1.141790         1.498760         2.745150
