19
Iteration:  1809charge 0 multiplicity 1
 O        -2.685740         3.719128         1.300314
 C        -1.792607         2.713372         1.670141
 C        -1.413883         1.967919         0.489474
 C        -0.615333         0.917439         1.281747
 O         0.097027         0.119764         0.328103
 C        -1.636998         0.438263         2.410721
 C        -2.039064         1.875840         2.840022
 C        -0.779012         2.717351         2.824638
 C         0.297454         1.835730         2.212878
 H        -2.772607         4.233146         2.148381
 H        -2.157427         1.372079        -0.078407
 H        -0.865993         2.516198        -0.305392
 H        -0.087202        -0.879744         0.580544
 H        -2.625939        -0.135052         2.136631
 H        -1.091787        -0.200476         3.175184
 H        -2.758673         2.002899         3.663985
 H        -0.716529         3.687538         3.361824
 H         0.990928         2.495042         1.583209
 H         0.936590         1.299108         3.017771
