19
Iteration:  1499charge 0 multiplicity 1
 O        -2.767599         3.846121         1.604779
 C        -1.862251         2.766554         1.637226
 C        -1.429026         2.001337         0.438448
 C        -0.574286         0.965720         1.280246
 O         0.154277        -0.114288         0.644598
 C        -1.622673         0.410926         2.247718
 C        -2.004424         1.773537         2.737549
 C        -0.780238         2.735894         2.675040
 C         0.308254         1.906206         2.106851
 H        -2.260123         4.637783         1.292022
 H        -2.252084         1.396900        -0.033366
 H        -0.764744         2.603999        -0.122473
 H        -0.554120        -0.605254         0.063572
 H        -2.506411         0.028098         1.691359
 H        -1.270898        -0.502494         2.839646
 H        -2.760152         1.918270         3.480645
 H        -0.557710         3.636908         3.282833
 H         1.005168         2.538576         1.403235
 H         0.986706         1.314125         2.757116
