19
Iteration:   995charge 0 multiplicity 1
 O        -2.713119         3.840031         1.652245
 C        -1.897707         2.756093         1.618715
 C        -1.307634         2.116438         0.462300
 C        -0.552851         0.858452         1.233644
 O         0.149387        -0.181183         0.570263
 C        -1.707863         0.451206         2.200474
 C        -2.052483         1.778648         2.789773
 C        -0.787932         2.787145         2.617218
 C         0.301318         1.885348         2.272803
 H        -3.462320         3.744726         0.994318
 H        -1.942570         1.762753        -0.338289
 H        -0.575694         2.718588         0.035232
 H         0.113133        -0.131254        -0.467755
 H        -2.558019         0.105461         1.603516
 H        -1.229664        -0.280308         2.918350
 H        -2.901043         1.861387         3.535818
 H        -0.684162         3.663362         3.274659
 H         1.094274         2.457069         1.682783
 H         0.907243         1.351922         2.986324
