19
Iteration:  4072
 O        -2.897384         3.886877         1.488545
 C        -1.926043         2.799103         1.614392
 C        -1.454289         1.913467         0.447154
 C        -0.575999         0.871034         1.314534
 O         0.055716        -0.125920         0.508757
 C        -1.500258         0.417001         2.441284
 C        -1.895227         1.862502         2.864072
 C        -0.718459         2.745328         2.590580
 C         0.255402         1.878105         2.000893
 H        -2.390877         4.626514         1.878907
 H        -2.128141         1.334398        -0.163581
 H        -0.835867         2.608979        -0.147939
 H         0.936315        -0.238586         0.772958
 H        -2.418543        -0.106473         2.170048
 H        -1.085830        -0.164844         3.283697
 H        -2.556714         1.961758         3.660619
 H        -0.499015         3.605274         3.221363
 H         0.989408         2.420293         1.384831
 H         0.894856         1.334733         2.809582
