19
Iteration:  4185
 O        -2.778109         3.862685         1.564498
 C        -1.907262         2.729344         1.630856
 C        -1.641736         1.855376         0.475090
 C        -0.579100         0.890895         1.271076
 O         0.191038        -0.078842         0.591371
 C        -1.542453         0.441276         2.416134
 C        -1.901514         1.890392         2.880047
 C        -0.694112         2.811530         2.576325
 C         0.307841         1.914075         1.957678
 H        -2.267507         4.526707         1.101576
 H        -2.507823         1.211478         0.227146
 H        -1.351647         2.268165        -0.462952
 H        -0.473122        -0.792722         0.306664
 H        -2.371630        -0.127019         1.996968
 H        -1.061882        -0.226217         3.117167
 H        -2.694417         2.089767         3.681908
 H        -0.610848         3.605186         3.329134
 H         0.876761         2.455099         1.155668
 H         1.035891         1.456025         2.683120
