19
Iteration:  4475
 O        -2.768742         3.829431         1.457599
 C        -1.980461         2.732610         1.669107
 C        -1.506882         1.837204         0.481966
 C        -0.563749         0.961544         1.264218
 O        -0.144225        -0.125985         0.464756
 C        -1.376880         0.466793         2.466752
 C        -1.978261         1.815631         2.932213
 C        -0.718449         2.794522         2.675787
 C         0.437859         1.993062         1.980783
 H        -2.543943         4.332643         0.678983
 H        -2.265142         1.107147         0.127533
 H        -1.163416         2.533840        -0.325733
 H         0.545251        -0.619726         0.996066
 H        -2.126328        -0.231441         2.125267
 H        -0.774795        -0.019067         3.258406
 H        -2.678876         1.972600         3.709292
 H        -0.650259         3.722081         3.247970
 H         0.957699         2.707685         1.286410
 H         1.211296         1.420888         2.597551
