19
Iteration:  2154
 O        -2.831164         3.921923         1.549822
 C        -1.892081         2.799265         1.697633
 C        -1.446419         2.000704         0.454366
 C        -0.510190         0.904167         1.220400
 O         0.143077        -0.145901         0.594826
 C        -1.528791         0.452218         2.328131
 C        -2.038454         1.772334         2.700708
 C        -0.721292         2.743239         2.689877
 C         0.383881         1.916977         2.083459
 H        -3.766784         3.549194         1.495679
 H        -2.422664         1.559207         0.092746
 H        -0.967679         2.520845        -0.337606
 H        -0.387924        -0.959557         0.421471
 H        -2.258456        -0.068482         1.727644
 H        -1.152493        -0.212499         3.141973
 H        -2.768641         2.025926         3.518821
 H        -0.572791         3.581231         3.414286
 H         1.029805         2.534896         1.427975
 H         1.002178         1.392359         2.800381
