19
Iteration:   248charge 0 multiplicity 1
 O        -2.471042         4.005849         1.527058
 C        -1.919040         2.752298         1.746223
 C        -1.462130         1.920393         0.460704
 C        -0.493557         0.895690         1.213842
 O         0.251155         0.000772         0.338375
 C        -1.648259         0.362426         2.240354
 C        -2.227137         1.704981         2.797685
 C        -0.973240         2.657439         2.813635
 C         0.274457         1.928887         2.195643
 H        -3.164996         4.277947         0.922139
 H        -2.437589         1.390329         0.298855
 H        -1.191442         2.544867        -0.397106
 H         0.915475        -0.335286         0.912914
 H        -2.400217        -0.373451         1.825721
 H        -1.050605        -0.095994         3.040196
 H        -2.896434         1.753311         3.696218
 H        -1.005425         3.313201         3.709614
 H         0.925853         2.707054         1.647768
 H         0.896370         1.451472         2.981615
