19
Iteration:   289charge 0 multiplicity 1
 O        -2.719701         3.921464         1.491825
 C        -1.955752         2.787630         1.673385
 C        -1.247341         2.090646         0.517022
 C        -0.533512         0.960140         1.270474
 O         0.076458        -0.029495         0.400979
 C        -1.708640         0.347873         2.226966
 C        -2.039039         1.727572         2.816646
 C        -0.836768         2.706819         2.684411
 C         0.328103         1.778062         2.275601
 H        -3.542339         3.570785         1.038202
 H        -1.885865         1.615003        -0.183373
 H        -0.475798         2.830165         0.154569
 H         1.075061         0.130646         0.507209
 H        -2.432444        -0.210140         1.665480
 H        -1.206340        -0.276668         2.994949
 H        -2.737326         2.011064         3.647687
 H        -0.785350         3.312715         3.615636
 H         1.129232         2.211735         1.723249
 H         0.739047         1.153350         3.082558
