19
Iteration:   345
 O        -2.652259         3.924044         1.595163
 C        -1.896970         2.763940         1.647645
 C        -1.307538         2.117208         0.447612
 C        -0.582627         0.984357         1.293340
 O         0.182932        -0.089322         0.649351
 C        -1.695327         0.383029         2.121013
 C        -2.151088         1.709817         2.672214
 C        -0.857514         2.646625         2.731953
 C         0.333870         1.835126         2.194084
 H        -3.527487         3.665708         1.946624
 H        -2.014313         1.908562        -0.372450
 H        -0.455494         2.693665        -0.046335
 H         0.478714         0.382500        -0.103173
 H        -2.265275        -0.209181         1.389729
 H        -1.435450        -0.283515         2.946703
 H        -2.965530         1.701774         3.407609
 H        -0.731592         3.442577         3.480074
 H         1.038215         2.350011         1.540264
 H         0.952592         1.112397         2.724080
