19
Iteration:   633charge 0 multiplicity 1
 O        -2.747491         3.931703         1.518585
 C        -1.883070         2.778059         1.716564
 C        -1.242383         2.052693         0.505987
 C        -0.487091         0.930965         1.308405
 O         0.098991         0.063155         0.437884
 C        -1.725253         0.373023         2.158282
 C        -2.153724         1.679958         2.734193
 C        -0.854604         2.596759         2.784767
 C         0.337978         1.782263         2.276788
 H        -2.749871         4.537218         0.734885
 H        -1.914941         1.581606        -0.316514
 H        -0.398603         2.657896         0.012655
 H         1.075528         0.377406         0.335310
 H        -2.421179        -0.138393         1.463806
 H        -1.336928        -0.350821         2.892848
 H        -3.021285         1.882831         3.329785
 H        -0.880536         3.248435         3.659438
 H         1.227526         2.213338         1.758247
 H         0.562710         1.149004         3.121061
