19
Iteration:   850charge 0 multiplicity 1
 O        -2.732199         3.844168         1.735832
 C        -1.858050         2.719550         1.626761
 C        -1.261014         2.068433         0.442182
 C        -0.589675         1.002219         1.251782
 O         0.156120        -0.130270         0.698016
 C        -1.761621         0.411657         2.073192
 C        -2.134230         1.751817         2.691391
 C        -0.824778         2.682481         2.717833
 C         0.354547         1.888030         2.123551
 H        -2.798846         4.344600         0.941096
 H        -1.977533         1.681812        -0.263709
 H        -0.677960         2.763909        -0.068970
 H         0.988738         0.183494         0.426369
 H        -2.583753        -0.059427         1.444852
 H        -1.186734        -0.257421         2.695553
 H        -3.099682         1.860590         3.201944
 H        -0.834637         3.638830         3.230120
 H         1.215931         2.351294         1.598628
 H         0.741812         1.172738         2.860707
