19
Iteration:  1582charge 0 multiplicity 1
 O        -2.797047         3.934192         1.575904
 C        -1.873059         2.803427         1.666556
 C        -1.453522         1.945169         0.386590
 C        -0.531505         0.877615         1.292617
 O         0.190781        -0.143472         0.565443
 C        -1.653148         0.458042         2.283122
 C        -2.056690         1.791125         2.777487
 C        -0.808529         2.634166         2.767838
 C         0.398851         1.915338         2.111138
 H        -2.231872         4.575579         1.106684
 H        -2.277086         1.576427        -0.198118
 H        -0.806779         2.529952        -0.364857
 H        -0.315984        -0.566814        -0.092375
 H        -2.488648        -0.023050         1.770002
 H        -1.246255        -0.150537         3.039508
 H        -2.801904         2.048331         3.516161
 H        -0.708420         3.554701         3.390354
 H         0.858151         2.581737         1.437981
 H         1.126829         1.518004         2.830422
