19
Iteration:   556charge 0 multiplicity 1
 O        -2.723378         3.946103         1.478550
 C        -1.886917         2.799126         1.660624
 C        -1.262535         2.060809         0.506808
 C        -0.520634         0.934289         1.295399
 O         0.157693        -0.025482         0.418378
 C        -1.686601         0.340939         2.235461
 C        -2.186049         1.690461         2.670418
 C        -0.902899         2.620501         2.816872
 C         0.323087         1.813610         2.288624
 H        -2.450150         4.557054         2.215150
 H        -2.102881         1.621762        -0.192149
 H        -0.450238         2.489342        -0.166091
 H         0.770731         0.487172        -0.133392
 H        -2.301180        -0.162036         1.431896
 H        -1.395340        -0.502505         2.867955
 H        -2.982645         1.869992         3.410568
 H        -0.885009         3.305002         3.693040
 H         1.050320         2.576676         1.917806
 H         0.937478         1.307793         3.020304
