19
Iteration:  2895charge 0 multiplicity 1
 O        -2.573500         3.915927         1.497975
 C        -1.976284         2.711872         1.672277
 C        -1.468443         1.944150         0.456524
 C        -0.619786         0.967738         1.223858
 O         0.149413         0.021724         0.515696
 C        -1.610536         0.362013         2.310220
 C        -2.010129         1.804705         2.828949
 C        -0.778937         2.742492         2.667339
 C         0.245909         1.865159         2.140760
 H        -3.384729         3.623774         1.075594
 H        -2.190528         1.399385        -0.040004
 H        -0.900186         2.644110        -0.050722
 H         0.694985        -0.507259         1.103939
 H        -2.388542        -0.296975         1.873851
 H        -0.898019        -0.333298         2.951043
 H        -2.719025         2.113737         3.635963
 H        -0.838141         3.541022         3.390047
 H         1.074179         2.330271         1.441374
 H         0.633311         1.116053         2.907650
