19
Iteration:  1425
 O        -2.752065         3.838827         1.378908
 C        -1.886281         2.719102         1.675283
 C        -1.399517         1.941926         0.490618
 C        -0.566550         0.954719         1.299324
 O         0.065390         0.080068         0.467078
 C        -1.610467         0.386385         2.264913
 C        -1.950222         1.826023         2.900145
 C        -0.762679         2.687981         2.792292
 C         0.322118         1.831558         2.185429
 H        -2.275256         4.483185         0.853064
 H        -2.284516         1.364924         0.020478
 H        -0.733313         2.607317        -0.105343
 H        -0.616298        -0.549693         0.263919
 H        -2.445206        -0.050357         1.693660
 H        -1.328519        -0.371641         2.985666
 H        -2.700160         2.040558         3.647907
 H        -0.653672         3.577712         3.450163
 H         1.127324         2.360351         1.645643
 H         0.816386         1.067188         2.824196
