19
Iteration:  2918
 O        -2.614153         3.985392         1.442932
 C        -1.895523         2.791670         1.610061
 C        -1.507000         1.800590         0.472756
 C        -0.513437         0.899202         1.424092
 O         0.142439         0.062943         0.328650
 C        -1.644888         0.444873         2.354808
 C        -2.099329         1.758147         2.862692
 C        -0.821452         2.669225         2.780609
 C         0.342346         1.929743         2.176227
 H        -3.384692         3.581838         0.964041
 H        -2.286034         1.232520         0.158397
 H        -0.798301         2.239143        -0.193346
 H         0.770965        -0.727141         0.607975
 H        -2.485737         0.059284         1.737934
 H        -1.370436        -0.416547         3.077591
 H        -2.895031         1.812948         3.622976
 H        -0.521725         3.498860         3.417564
 H         0.853487         2.547562         1.353943
 H         1.016348         1.292787         2.840573
