19
Iteration:  1235
 O        -2.754647         3.842485         1.642340
 C        -1.912144         2.779921         1.665617
 C        -1.350609         2.002221         0.343389
 C        -0.551745         0.935461         1.168210
 O         0.171437        -0.103163         0.578495
 C        -1.632751         0.528424         2.284443
 C        -1.990108         1.824718         2.844948
 C        -0.803209         2.686126         2.771428
 C         0.317930         1.859724         2.057405
 H        -3.473743         3.825959         0.957229
 H        -2.204757         1.575002        -0.355462
 H        -0.603015         2.563637        -0.250511
 H        -0.296938        -0.982866         0.642374
 H        -2.471209         0.003677         1.856389
 H        -1.278381        -0.048106         3.178022
 H        -2.948147         1.938533         3.302177
 H        -0.601071         3.535723         3.457860
 H         1.014981         2.526740         1.472763
 H         0.949364         1.237403         2.699535
