19
Iteration:  1946charge 0 multiplicity 1
 O        -2.691755         3.860646         1.383927
 C        -1.833923         2.727845         1.656112
 C        -1.400367         1.913996         0.529222
 C        -0.568930         0.954761         1.365820
 O         0.038627         0.076630         0.377950
 C        -1.589356         0.394879         2.349963
 C        -2.047355         1.773058         2.866846
 C        -0.735078         2.712504         2.760849
 C         0.328260         1.948250         2.126033
 H        -3.513406         3.419099         1.190528
 H        -2.234209         1.355430         0.112809
 H        -0.824148         2.344016        -0.246129
 H         0.031165        -0.821833         0.799863
 H        -2.266471        -0.214575         1.803699
 H        -1.311643        -0.176517         3.245333
 H        -2.749115         1.927135         3.725872
 H        -0.813667         3.674549         3.323041
 H         0.949505         2.499864         1.412943
 H         1.024652         1.305927         2.688321
