19
Iteration:  1022charge 0 multiplicity 1
 O        -2.727544         3.943634         1.402645
 C        -1.859099         2.847900         1.647883
 C        -1.271696         2.014868         0.528424
 C        -0.504171         0.928695         1.297360
 O         0.038466        -0.061764         0.455990
 C        -1.600053         0.424511         2.322782
 C        -2.059741         1.728804         2.844962
 C        -0.869024         2.648357         2.791103
 C         0.301926         1.822943         2.211071
 H        -3.451520         3.616118         0.785926
 H        -2.088547         1.475142        -0.053515
 H        -0.541385         2.526314        -0.226123
 H         0.058205         0.222636        -0.530567
 H        -2.359101        -0.163685         1.750020
 H        -1.099922        -0.196654         3.061032
 H        -2.759317         1.818649         3.627187
 H        -0.733097         3.295908         3.647273
 H         1.021301         2.507283         1.728959
 H         0.996697         1.200683         2.864385
