19
Iteration:  1020
 O        -2.741078         3.945530         1.411109
 C        -1.862917         2.848457         1.658476
 C        -1.256102         2.007952         0.521148
 C        -0.498380         0.937113         1.294241
 O         0.052867        -0.091420         0.442552
 C        -1.623086         0.404648         2.322935
 C        -2.058422         1.735609         2.847327
 C        -0.877371         2.676851         2.795416
 C         0.312425         1.830150         2.208188
 H        -3.429784         3.659231         0.791354
 H        -2.087969         1.594185        -0.051416
 H        -0.555360         2.521828        -0.174455
 H         0.037632         0.214658        -0.521743
 H        -2.333498        -0.167467         1.718199
 H        -1.101091        -0.219374         3.091300
 H        -2.782397         1.833086         3.642019
 H        -0.726456         3.333781         3.638873
 H         1.074432         2.480853         1.666721
 H         0.957848         1.197894         2.883272
