19
Iteration:  1769
 O        -2.731433         3.978612         1.440372
 C        -1.943294         2.797514         1.629725
 C        -1.393453         1.991370         0.504494
 C        -0.578359         0.913666         1.309353
 O         0.071336        -0.097607         0.557568
 C        -1.558262         0.325199         2.284889
 C        -2.021988         1.708990         2.797795
 C        -0.879399         2.686562         2.680069
 C         0.329404         1.910965         2.111272
 H        -2.460033         4.780650         1.874151
 H        -2.220029         1.573979        -0.083373
 H        -0.786852         2.676930        -0.175629
 H         0.967928        -0.142281         0.724033
 H        -2.259366        -0.254923         1.703034
 H        -1.037583        -0.257221         2.991017
 H        -2.485635         1.906176         3.759568
 H        -0.753881         3.461351         3.382884
 H         0.919225         2.222871         1.298604
 H         0.886036         1.323450         2.853560
