19
Iteration:  4384charge 0 multiplicity 1
 O        -2.903182         3.756600         1.344346
 C        -1.845543         2.852675         1.698936
 C        -1.487864         1.963249         0.529615
 C        -0.610966         0.867700         1.308980
 O        -0.172612        -0.133763         0.423848
 C        -1.377060         0.485807         2.551454
 C        -1.876329         1.903785         2.859323
 C        -0.660462         2.799878         2.622690
 C         0.436646         1.887584         1.984408
 H        -3.726936         3.368135         1.750618
 H        -2.383266         1.552153         0.001231
 H        -0.815679         2.468758        -0.217306
 H         0.381610        -0.657607         0.939598
 H        -2.259515        -0.182755         2.313200
 H        -0.704543         0.038273         3.248822
 H        -2.519823         2.071259         3.772859
 H        -0.234194         3.580333         3.255450
 H         1.072574         2.629543         1.337185
 H         1.125162         1.439713         2.739269
