19
Iteration:   453charge 0 multiplicity 1
 O        -2.743603         3.884640         1.674762
 C        -1.887243         2.839583         1.651084
 C        -1.241848         2.090274         0.382519
 C        -0.527988         0.978949         1.239953
 O         0.073908        -0.090589         0.673146
 C        -1.616023         0.414678         2.073075
 C        -2.101080         1.732531         2.632821
 C        -0.871711         2.671748         2.711872
 C         0.345962         1.802580         2.240302
 H        -3.608004         3.551583         1.448937
 H        -2.033777         1.749724        -0.303623
 H        -0.574667         2.894211        -0.011563
 H         0.930525         0.052661         0.300572
 H        -2.385951        -0.001746         1.410019
 H        -1.323928        -0.390261         2.763442
 H        -2.836200         1.840448         3.401458
 H        -0.886977         3.364070         3.533353
 H         1.227387         2.146827         1.741730
 H         0.680936         1.127254         3.087612
