19
Iteration:  1477
 O        -2.708695         3.976067         1.737748
 C        -1.989712         2.794778         1.628430
 C        -1.415696         1.927931         0.222914
 C        -0.599360         0.942513         1.211724
 O         0.221163        -0.143772         0.736817
 C        -1.585323         0.469647         2.178560
 C        -2.055930         1.745764         2.819877
 C        -0.843640         2.686217         2.576478
 C         0.311021         1.910266         2.074528
 H        -2.162001         4.760768         1.804884
 H        -2.308923         1.354779        -0.184464
 H        -0.795132         2.519772        -0.406717
 H        -0.274179        -0.871014         0.500683
 H        -2.348683        -0.255799         1.912157
 H        -0.979729        -0.130488         2.967312
 H        -2.742984         1.740719         3.638978
 H        -0.745117         3.485632         3.345618
 H         1.185870         2.531488         1.580948
 H         0.789792         1.226093         2.813049
