19
Iteration:   364
 O        -2.602836         4.079545         1.540773
 C        -1.952714         2.750555         1.655297
 C        -1.284626         2.008005         0.453732
 C        -0.489460         0.894837         1.140313
 O         0.262033        -0.091532         0.477880
 C        -1.678603         0.365298         2.210361
 C        -2.121682         1.741188         2.806367
 C        -0.965414         2.598791         2.825977
 C         0.196446         1.850404         2.246129
 H        -3.540014         3.907708         1.489403
 H        -2.034301         1.479073        -0.112299
 H        -0.672353         2.744292        -0.150637
 H         0.652566         0.267798        -0.290028
 H        -2.534358        -0.088073         1.780867
 H        -1.188479        -0.377877         2.886931
 H        -2.918548         1.816568         3.601273
 H        -0.710868         3.386838         3.592223
 H         0.911236         2.487997         1.803498
 H         0.724064         1.459818         3.152600
