19
Iteration:  2346
 O        -2.645069         3.988320         1.505580
 C        -1.949357         2.793633         1.654806
 C        -1.516699         1.885335         0.527922
 C        -0.604449         0.868634         1.291898
 O         0.136828        -0.064846         0.459951
 C        -1.452105         0.371120         2.443746
 C        -2.084160         1.752737         2.883505
 C        -0.849483         2.789632         2.615240
 C         0.324442         1.903112         1.998190
 H        -3.470339         3.873662         1.033337
 H        -2.249106         1.580136        -0.117613
 H        -0.780764         2.313103        -0.179593
 H         0.564715        -0.679649         0.980716
 H        -2.200278        -0.392973         1.955934
 H        -0.767697        -0.204516         3.141726
 H        -2.781284         1.988863         3.723036
 H        -0.753390         3.703560         3.187935
 H         0.744145         2.608814         1.170357
 H         1.083623         1.469127         2.782135
