19
Iteration:  3630
 O        -2.759716         3.982786         1.485557
 C        -1.963561         2.739920         1.698582
 C        -1.406828         1.903506         0.440597
 C        -0.565055         0.880962         1.278297
 O         0.073046        -0.116939         0.565123
 C        -1.522770         0.387585         2.364222
 C        -2.004657         1.749811         2.893344
 C        -0.820368         2.762703         2.678995
 C         0.331399         1.963945         2.042059
 H        -2.862908         4.021953         0.531494
 H        -2.189007         1.481530        -0.170610
 H        -0.612436         2.430272         0.018386
 H         0.350664         0.259509        -0.276434
 H        -2.412079        -0.131532         1.880374
 H        -1.111623        -0.203898         3.195913
 H        -2.512240         1.838049         3.816582
 H        -0.535684         3.486204         3.448714
 H         1.044648         2.332955         1.395579
 H         0.918018         1.371110         2.715284
