19
Iteration:  4015
 O        -2.764165         3.948228         1.428670
 C        -1.872156         2.801561         1.685329
 C        -1.516828         1.891289         0.485041
 C        -0.655731         0.889329         1.323508
 O         0.122351        -0.017475         0.434889
 C        -1.521965         0.341907         2.420360
 C        -1.957917         1.832219         2.937290
 C        -0.781733         2.780428         2.672467
 C         0.361963         1.903127         2.027099
 H        -3.149791         3.770445         0.555916
 H        -2.270329         1.282822        -0.025470
 H        -0.959075         2.377095        -0.371921
 H         0.473090        -0.839099         0.973156
 H        -2.442118        -0.262725         2.200864
 H        -0.808660        -0.142918         3.136048
 H        -2.715055         1.833550         3.792556
 H        -0.703704         3.546606         3.440083
 H         0.921655         2.414945         1.213328
 H         0.930269         1.262319         2.764006
