19
Iteration:   776charge 0 multiplicity 1
 O        -2.583263         3.905761         1.413937
 C        -1.859768         2.716743         1.681372
 C        -1.253118         2.039709         0.477354
 C        -0.598757         0.949076         1.198504
 O         0.095364         0.051261         0.358005
 C        -1.719370         0.342764         2.301025
 C        -2.106598         1.709987         2.859771
 C        -0.893928         2.664898         2.861236
 C         0.321598         1.864019         2.386213
 H        -3.368536         3.583563         0.857824
 H        -1.980784         1.519326        -0.225631
 H        -0.476596         2.540274        -0.202147
 H         0.727373         0.399487        -0.326792
 H        -2.594298        -0.023145         1.725797
 H        -1.259237        -0.475465         2.927281
 H        -3.095056         1.774975         3.356957
 H        -0.947921         3.514302         3.550362
 H         0.974874         2.697653         1.913148
 H         0.826317         1.114273         3.001445
