19
Iteration:  4797
 O        -2.905859         3.693443         1.675236
 C        -1.881961         2.722595         1.596897
 C        -1.381659         1.938128         0.412478
 C        -0.584217         0.938310         1.313240
 O        -0.089021        -0.178816         0.568325
 C        -1.594468         0.506306         2.384988
 C        -1.945257         1.845820         2.823499
 C        -0.650176         2.827191         2.590528
 C         0.453511         2.026416         1.981693
 H        -3.002706         4.137347         0.788865
 H        -2.095638         1.312601        -0.128524
 H        -0.804480         2.599599        -0.247543
 H         0.807857        -0.516914         0.963216
 H        -2.362654        -0.057720         1.809815
 H        -1.240850        -0.111878         3.200574
 H        -2.624360         2.128785         3.691910
 H        -0.326524         3.670463         3.259733
 H         0.833361         2.637362         1.128907
 H         1.405142         1.700480         2.515381
