19
Iteration:  3155charge 0 multiplicity 1
 O        -2.650479         3.838233         1.442478
 C        -1.769850         2.726534         1.671294
 C        -1.369316         1.949467         0.493302
 C        -0.535940         0.926218         1.267657
 O         0.141835        -0.003914         0.424929
 C        -1.673902         0.472457         2.376625
 C        -2.093131         1.799901         2.738454
 C        -0.890186         2.700686         2.826613
 C         0.336307         1.937494         2.109055
 H        -3.502670         3.555643         1.882689
 H        -2.194145         1.330724        -0.020211
 H        -0.871526         2.533437        -0.223512
 H        -0.407600        -0.756199         0.328730
 H        -2.436588        -0.227150         1.981883
 H        -1.121465        -0.049524         3.183202
 H        -3.040041         1.875468         3.243389
 H        -0.679350         3.473681         3.558059
 H         0.932188         2.793166         1.643715
 H         1.099097         1.375875         2.850972
