19
Iteration:   419charge 0 multiplicity 1
 O        -2.674258         3.944748         1.487332
 C        -1.864516         2.790478         1.684066
 C        -1.321195         2.023483         0.472896
 C        -0.557295         0.900529         1.217175
 O         0.147676        -0.011955         0.432073
 C        -1.655999         0.385250         2.227999
 C        -2.133655         1.737157         2.801865
 C        -0.941812         2.617455         2.892479
 C         0.334615         1.818290         2.242994
 H        -2.910611         3.846672         0.567410
 H        -1.988482         1.744817        -0.325812
 H        -0.605504         2.712705        -0.061558
 H         1.008127         0.440803         0.196651
 H        -2.486161        -0.012439         1.686450
 H        -1.220457        -0.390661         2.899818
 H        -2.876969         1.764894         3.604174
 H        -1.007268         3.404802         3.675788
 H         0.993113         2.380537         1.612675
 H         0.870844         1.311129         3.074964
