19
Iteration:   330
 O        -2.760788         3.817494         1.618758
 C        -1.818143         2.810406         1.637317
 C        -1.240983         2.094512         0.386156
 C        -0.549833         1.029453         1.248758
 O         0.040481        -0.052001         0.711047
 C        -1.703678         0.434208         2.060390
 C        -2.072421         1.738745         2.611912
 C        -0.763680         2.600496         2.790086
 C         0.335521         1.834053         2.194634
 H        -3.567121         3.514748         1.996243
 H        -1.983831         1.630538        -0.286599
 H        -0.647004         2.795699        -0.259076
 H         0.728888         0.030321         0.035428
 H        -2.537600         0.008087         1.533368
 H        -1.303584        -0.329405         2.764627
 H        -2.820778         2.044731         3.377449
 H        -0.731091         3.226394         3.696351
 H         1.082515         2.473602         1.779175
 H         0.739044         1.255964         3.050624
