19
Iteration:  1279charge 0 multiplicity 1
 O        -2.747479         3.927801         1.322176
 C        -1.879957         2.721128         1.683730
 C        -1.336020         1.865353         0.510296
 C        -0.531351         0.919827         1.328370
 O        -0.029742         0.050273         0.271889
 C        -1.616176         0.408143         2.345020
 C        -1.995522         1.825899         2.938847
 C        -0.771338         2.691728         2.762787
 C         0.361950         1.862823         2.243310
 H        -3.566304         3.792628         1.878719
 H        -2.114847         1.328746        -0.182273
 H        -0.750142         2.536763        -0.122989
 H         0.695755        -0.483097         0.744753
 H        -2.461134         0.040357         1.807296
 H        -1.112223        -0.393572         2.938787
 H        -2.832845         2.041448         3.628057
 H        -0.529270         3.587246         3.394181
 H         1.142569         2.548234         1.774283
 H         0.857422         1.220511         2.982264
