19
Iteration:  1981charge 0 multiplicity 1
 O        -2.781853         3.905199         1.566342
 C        -1.951247         2.779602         1.664914
 C        -1.432231         2.022296         0.355892
 C        -0.570543         0.987501         1.246199
 O         0.254503        -0.158894         0.633181
 C        -1.602634         0.430241         2.291189
 C        -1.971391         1.803689         2.810424
 C        -0.800525         2.734412         2.664942
 C         0.320642         1.865432         2.060494
 H        -3.562058         3.629152         2.026963
 H        -2.293619         1.548999        -0.243056
 H        -0.742990         2.648268        -0.212829
 H        -0.496581        -0.765030         0.323117
 H        -2.320513        -0.136557         1.771743
 H        -1.058894        -0.174197         3.049862
 H        -2.573515         1.835773         3.685179
 H        -0.612904         3.724182         3.066314
 H         1.101286         2.392513         1.481880
 H         0.776548         1.283369         2.842640
