19
Iteration:  4536
 O        -2.939480         3.693136         1.577629
 C        -1.904283         2.826362         1.619858
 C        -1.570112         1.925142         0.483491
 C        -0.591953         0.890871         1.234000
 O         0.067750        -0.133854         0.517529
 C        -1.536844         0.503311         2.451203
 C        -1.895416         2.028006         2.866878
 C        -0.604467         2.766464         2.559144
 C         0.419131         1.878025         1.979440
 H        -2.937216         4.380247         0.896756
 H        -2.386863         1.336225         0.071446
 H        -1.084908         2.545841        -0.278128
 H         0.434657        -0.676233         1.200220
 H        -2.402429        -0.123726         2.029490
 H        -1.077879        -0.127312         3.224623
 H        -2.326867         2.160772         3.867932
 H        -0.448211         3.480089         3.345166
 H         1.089898         2.370035         1.241858
 H         0.962406         1.285514         2.657928
