19
Iteration:  2310
 O        -2.728610         3.815752         1.407456
 C        -1.880569         2.723980         1.648248
 C        -1.522213         1.841234         0.482493
 C        -0.567402         0.959919         1.289558
 O         0.101908         0.016430         0.414972
 C        -1.542831         0.481985         2.337535
 C        -1.981216         1.906819         2.979112
 C        -0.772035         2.741862         2.704870
 C         0.400329         1.894795         2.157567
 H        -3.606511         3.468456         1.281908
 H        -2.400619         1.254554         0.209363
 H        -0.985646         2.416196        -0.331257
 H        -0.229458        -0.818967         0.649229
 H        -2.415787         0.080949         1.824096
 H        -1.117136        -0.389073         2.937163
 H        -2.745057         1.996126         3.724840
 H        -0.607313         3.708685         3.214131
 H         1.126978         2.490196         1.526742
 H         1.082372         1.281051         2.719800
