19
Iteration:  2731charge 0 multiplicity 1
 O        -2.773662         3.985697         1.487757
 C        -1.949391         2.853580         1.631263
 C        -1.417202         2.011926         0.448337
 C        -0.590672         0.907237         1.248413
 O         0.117484        -0.081610         0.548379
 C        -1.583288         0.375479         2.336662
 C        -2.015265         1.826327         2.765522
 C        -0.760025         2.678212         2.690094
 C         0.381264         1.787652         2.068050
 H        -3.653186         3.531070         1.584890
 H        -2.268322         1.648863        -0.157962
 H        -0.577267         2.579545        -0.199413
 H         0.764165        -0.413247         1.248081
 H        -2.409767        -0.341060         2.098053
 H        -1.082079        -0.082489         3.236299
 H        -2.677096         1.753769         3.603755
 H        -0.801757         3.400166         3.526893
 H         1.179479         2.313463         1.453876
 H         0.913489         1.269652         2.867307
