19
Iteration:  1712charge 0 multiplicity 1
 O        -2.827181         3.931180         1.551378
 C        -1.911380         2.795584         1.665161
 C        -1.362519         1.929566         0.477881
 C        -0.540845         0.939864         1.279105
 O         0.110216        -0.112577         0.579544
 C        -1.652711         0.373791         2.233415
 C        -1.982146         1.768973         2.728725
 C        -0.712601         2.754440         2.706956
 C         0.343550         1.906223         2.227093
 H        -2.756207         4.347677         0.643641
 H        -2.201926         1.411328         0.024202
 H        -0.925687         2.675667        -0.271044
 H         0.012667        -0.028352        -0.480802
 H        -2.613204        -0.022053         1.727414
 H        -1.323630        -0.434792         2.846434
 H        -2.826614         1.798828         3.430155
 H        -0.448487         3.507035         3.534768
 H         1.223149         2.084932         1.626989
 H         0.831080         1.342397         3.126424
