19
Iteration:  2316charge 0 multiplicity 1
 O        -2.672052         3.796229         1.407170
 C        -1.940635         2.733736         1.645593
 C        -1.518079         1.856388         0.461335
 C        -0.546021         0.978017         1.275653
 O         0.093005         0.056067         0.425126
 C        -1.585274         0.484913         2.400917
 C        -1.941142         1.832816         2.965300
 C        -0.753902         2.748261         2.696250
 C         0.370075         1.871685         2.158386
 H        -3.598277         3.592520         1.208425
 H        -2.335237         1.194861        -0.039213
 H        -1.091316         2.350351        -0.382587
 H        -0.210698        -0.887363         0.738938
 H        -2.454363         0.084803         1.833010
 H        -1.066140        -0.257783         2.968123
 H        -2.653768         2.022341         3.789949
 H        -0.686510         3.702731         3.181588
 H         0.868727         2.579338         1.499597
 H         1.157334         1.320675         2.753294
