19
Iteration:  4837charge 0 multiplicity 1
 O        -2.879894         3.799139         1.414540
 C        -1.950980         2.781066         1.697943
 C        -1.623455         1.878550         0.542697
 C        -0.629637         0.867815         1.306564
 O         0.129751        -0.010997         0.409619
 C        -1.534543         0.409112         2.446316
 C        -1.858457         1.860401         2.891793
 C        -0.643876         2.860673         2.494483
 C         0.377775         1.826382         2.089955
 H        -2.366237         4.604355         1.464089
 H        -2.646427         1.422571         0.334417
 H        -1.172328         2.283119        -0.395500
 H         0.750079        -0.363839         0.996547
 H        -2.461643        -0.098407         2.309575
 H        -0.804301        -0.069467         3.206161
 H        -2.596987         1.969254         3.696297
 H        -0.504761         3.656042         3.274262
 H         1.071642         2.166049         1.356469
 H         0.759259         1.411107         3.030938
