19
Iteration:  2260
 O        -2.728372         3.823974         1.630162
 C        -1.966347         2.703597         1.676211
 C        -1.355762         1.931350         0.368296
 C        -0.567509         0.982508         1.182310
 O         0.155674        -0.118412         0.667654
 C        -1.581026         0.512394         2.391462
 C        -1.993009         1.815092         2.831749
 C        -0.774872         2.752896         2.618700
 C         0.291158         1.940839         1.958726
 H        -3.735019         3.739561         1.690570
 H        -2.054779         1.475037        -0.385755
 H        -0.634026         2.654681        -0.027536
 H        -0.505866        -0.541786         0.059716
 H        -2.323800        -0.236895         1.963753
 H        -1.056630        -0.134922         3.048789
 H        -2.917925         1.909371         3.476560
 H        -0.531806         3.744699         3.038876
 H         1.096961         2.577991         1.495114
 H         0.877787         1.260728         2.665105
