19
Iteration:  1778
 O        -2.724889         3.924022         1.326638
 C        -1.935266         2.821888         1.668894
 C        -1.430096         1.998709         0.555195
 C        -0.518413         0.941022         1.308621
 O         0.028250        -0.048516         0.476976
 C        -1.540750         0.381593         2.279714
 C        -2.019057         1.698820         2.818910
 C        -0.820612         2.672076         2.719669
 C         0.300252         1.854819         2.144308
 H        -2.338057         4.554428         1.930912
 H        -2.081685         1.239674         0.193829
 H        -1.063891         2.691281        -0.249948
 H         0.805383        -0.330092         0.862992
 H        -2.463167        -0.118798         1.795209
 H        -1.148095        -0.319766         2.999430
 H        -2.578601         1.770492         3.760201
 H        -0.680296         3.462012         3.444913
 H         0.953936         2.509858         1.528249
 H         0.974265         1.506152         3.029006
