19
Iteration:   244
 O        -2.467389         4.046507         1.540780
 C        -1.963613         2.792860         1.749546
 C        -1.473196         1.911006         0.456048
 C        -0.481351         0.904949         1.219239
 O         0.267425        -0.010688         0.348397
 C        -1.645854         0.355899         2.230674
 C        -2.247440         1.672979         2.811722
 C        -0.966837         2.634092         2.778134
 C         0.294443         1.947765         2.191875
 H        -3.254685         4.196687         0.941353
 H        -2.356111         1.380610         0.293285
 H        -1.137934         2.540665        -0.382387
 H         0.909250        -0.493378         1.000484
 H        -2.391117        -0.256927         1.820247
 H        -1.100675        -0.203650         3.034997
 H        -2.789343         1.631639         3.751500
 H        -0.970731         3.376975         3.560342
 H         0.908101         2.560634         1.613708
 H         0.874370         1.467271         2.995113
