19
Iteration:  1788charge 0 multiplicity 1
 O        -2.696073         3.865447         1.284574
 C        -1.907265         2.725789         1.743411
 C        -1.466630         1.913624         0.517446
 C        -0.512193         0.970187         1.270482
 O         0.028066        -0.004503         0.393812
 C        -1.591252         0.437790         2.297423
 C        -2.033699         1.770014         2.893628
 C        -0.804229         2.698035         2.765034
 C         0.367283         1.899896         2.194220
 H        -2.551183         4.654880         1.821844
 H        -2.352692         1.459007         0.045355
 H        -0.910018         2.403549        -0.309922
 H         0.604985        -0.514987         0.893272
 H        -2.390347        -0.148320         1.678970
 H        -1.175208        -0.244247         3.070347
 H        -2.882574         1.770099         3.581485
 H        -0.604867         3.387983         3.584255
 H         1.069274         2.626989         1.696473
 H         0.927815         1.248440         3.000155
