19
Iteration:    29
 O        -2.864563         3.753502         1.394175
 C        -1.918632         2.717656         1.707828
 C        -1.293037         2.081001         0.406563
 C        -0.463952         0.994933         1.262064
 O        -0.068919        -0.076054         0.365055
 C        -1.533074         0.496668         2.387533
 C        -1.958690         1.812513         2.863819
 C        -0.773063         2.727333         2.767427
 C         0.371105         1.818302         2.246765
 H        -3.566142         3.649141         2.016791
 H        -2.070647         1.488096        -0.125277
 H        -0.703233         2.757370        -0.253104
 H         0.509554         0.268693        -0.324516
 H        -2.437184        -0.082218         2.010944
 H        -1.092897        -0.250373         3.058972
 H        -2.682469         1.786582         3.687102
 H        -0.637000         3.665841         3.350793
 H         1.285986         2.321628         1.795256
 H         0.831248         1.174039         3.034435
