19
Iteration:  2738charge 0 multiplicity 1
 O        -2.719152         3.976933         1.503610
 C        -1.927301         2.789476         1.652175
 C        -1.458892         2.037576         0.456856
 C        -0.539024         0.903431         1.234253
 O         0.112787        -0.126146         0.555080
 C        -1.613643         0.405029         2.375541
 C        -2.028450         1.723766         2.732299
 C        -0.785711         2.701566         2.660384
 C         0.359738         1.891602         2.082654
 H        -3.699958         3.775416         1.474482
 H        -2.185412         1.684117        -0.260053
 H        -0.882783         2.703331        -0.046527
 H         0.664301        -0.499663         1.214127
 H        -2.343534        -0.180912         1.848956
 H        -0.968342        -0.013720         3.177285
 H        -2.612893         1.882199         3.647463
 H        -0.678166         3.410074         3.455647
 H         1.190354         2.341683         1.420221
 H         0.812903         1.259902         2.902790
