19
Iteration:  3263
 O        -2.678919         3.922832         1.435147
 C        -2.027436         2.669068         1.654886
 C        -1.405431         2.027865         0.443419
 C        -0.516209         1.020486         1.180737
 O         0.036862        -0.150508         0.560790
 C        -1.540222         0.473424         2.310791
 C        -1.936817         1.730453         2.907083
 C        -0.871909         2.727298         2.707999
 C         0.334230         1.854128         2.104672
 H        -3.593080         3.771624         1.786106
 H        -2.226621         1.653109        -0.140901
 H        -0.744254         2.657373        -0.145908
 H         1.024690         0.004084         0.397410
 H        -2.464651         0.037334         1.809098
 H        -0.845544        -0.228509         2.903011
 H        -2.663115         1.829157         3.692887
 H        -0.707075         3.512526         3.430351
 H         1.097159         2.405795         1.673034
 H         0.634126         1.366278         3.049989
