19
Iteration:  4840
 O        -2.860077         3.819238         1.410157
 C        -1.953193         2.782845         1.678594
 C        -1.631943         1.844682         0.554310
 C        -0.604247         0.852903         1.308096
 O         0.104180         0.018444         0.400992
 C        -1.523870         0.405228         2.460855
 C        -1.870207         1.829784         2.885657
 C        -0.677861         2.862732         2.517004
 C         0.401308         1.829753         2.060040
 H        -2.330189         4.656466         1.542393
 H        -2.599005         1.333809         0.289073
 H        -1.181399         2.287819        -0.369440
 H         0.806151        -0.449367         1.012613
 H        -2.462403        -0.133685         2.348472
 H        -0.863238        -0.035755         3.244978
 H        -2.602922         2.127828         3.736034
 H        -0.623752         3.696308         3.266136
 H         1.176826         2.191965         1.428651
 H         0.761928         1.425533         3.042766
