19
Iteration:  4408charge 0 multiplicity 1
 O        -2.843771         3.755467         1.461059
 C        -1.925763         2.770544         1.656471
 C        -1.574964         1.807275         0.496626
 C        -0.546816         0.922463         1.295292
 O        -0.002069        -0.105083         0.444189
 C        -1.595166         0.523317         2.460700
 C        -1.803622         1.949155         2.910790
 C        -0.655496         2.899206         2.534572
 C         0.402359         1.856019         1.994504
 H        -3.250548         3.939301         2.338881
 H        -2.325781         1.081936         0.136485
 H        -1.112308         2.323865        -0.410283
 H         0.706163        -0.500506         0.984138
 H        -2.587206         0.159597         2.156693
 H        -1.115831        -0.183136         3.157994
 H        -2.454911         2.045140         3.819276
 H        -0.423379         3.773292         3.152846
 H         1.199768         2.284444         1.264113
 H         0.960670         1.336264         2.825371
