19
Iteration:  2297
 O        -2.839423         3.865345         1.440784
 C        -1.854596         2.809647         1.707615
 C        -1.458656         1.892499         0.572140
 C        -0.515017         0.903354         1.245529
 O         0.121173        -0.060580         0.448975
 C        -1.561125         0.423503         2.332601
 C        -1.971020         1.839517         2.823935
 C        -0.710692         2.821967         2.699095
 C         0.370083         1.901289         2.079966
 H        -3.688022         3.337885         1.463348
 H        -2.379901         1.391168         0.054793
 H        -1.041928         2.420304        -0.304825
 H        -0.331719        -0.990710         0.492695
 H        -2.351012        -0.095190         1.870600
 H        -1.157766        -0.069289         3.236037
 H        -2.717924         2.077497         3.550357
 H        -0.505288         3.610722         3.418921
 H         1.184981         2.315698         1.578334
 H         0.578432         1.434561         2.977409
