19
Iteration:  2942
 O        -2.619392         3.917178         1.416615
 C        -1.883383         2.757514         1.657916
 C        -1.380597         1.961366         0.510313
 C        -0.551325         0.911477         1.285966
 O         0.057540         0.019456         0.371058
 C        -1.603725         0.382161         2.359520
 C        -2.087645         1.732229         2.806804
 C        -0.868022         2.717332         2.745842
 C         0.342636         1.902257         2.179499
 H        -3.527096         3.601792         1.165458
 H        -2.262118         1.523446         0.157958
 H        -0.685960         2.563761        -0.163299
 H         0.541463        -0.547998         0.928044
 H        -2.439157        -0.302310         2.120774
 H        -1.071317        -0.028726         3.208333
 H        -2.778517         1.911227         3.601356
 H        -0.565357         3.507513         3.446249
 H         0.929626         2.518624         1.528306
 H         0.910421         1.302334         2.952329
