19
Iteration:   543charge 0 multiplicity 1
 O        -2.610865         3.864549         1.388033
 C        -1.814521         2.751314         1.740149
 C        -1.290759         2.010043         0.509671
 C        -0.487734         0.944920         1.257053
 O         0.127867         0.040542         0.345222
 C        -1.648003         0.335796         2.166317
 C        -2.230677         1.736900         2.741189
 C        -0.922406         2.608159         2.899236
 C         0.256895         1.847992         2.365747
 H        -2.718913         4.562114         2.033953
 H        -2.187148         1.546103        -0.099192
 H        -0.798148         2.851805        -0.137982
 H         0.842106         0.519293        -0.180968
 H        -2.538796        -0.241888         1.708666
 H        -1.310141        -0.092229         3.113332
 H        -3.047259         1.879095         3.513546
 H        -0.800258         3.514022         3.531596
 H         0.897953         2.401129         1.648185
 H         0.713829         1.150567         3.087338
