19
Iteration:   615
 O        -2.819936         3.908949         1.681566
 C        -1.829798         2.859183         1.630989
 C        -1.252924         2.083096         0.444480
 C        -0.530665         0.948535         1.240305
 O         0.163980        -0.081267         0.589025
 C        -1.727483         0.375612         2.037322
 C        -2.123879         1.756547         2.622575
 C        -0.844766         2.615531         2.843283
 C         0.299382         1.759941         2.275798
 H        -2.602748         4.271663         0.791082
 H        -2.031574         1.629279        -0.087756
 H        -0.589996         2.587785        -0.227629
 H         1.091296         0.291498         0.347689
 H        -2.403294         0.044555         1.269783
 H        -1.397477        -0.392713         2.783655
 H        -2.843053         1.810061         3.481455
 H        -0.746392         3.401223         3.621298
 H         0.838769         2.503392         1.689073
 H         0.968913         1.225915         2.986753
