19
Iteration:  1839
 O        -2.834166         3.960322         1.417687
 C        -1.915904         2.769502         1.666373
 C        -1.409080         1.994371         0.484408
 C        -0.550032         0.929132         1.283243
 O         0.172018        -0.077094         0.562641
 C        -1.588970         0.356900         2.306829
 C        -2.030351         1.863370         2.790367
 C        -0.761099         2.738844         2.675641
 C         0.390057         1.790291         2.121822
 H        -3.400388         3.892183         2.186819
 H        -2.115137         1.473451        -0.276723
 H        -0.673424         2.560888        -0.055063
 H        -0.440561        -0.639978         0.045005
 H        -2.424682        -0.125260         1.884627
 H        -1.018406        -0.257617         3.052337
 H        -2.459177         1.801770         3.802702
 H        -0.769026         3.637717         3.366921
 H         1.162410         2.307922         1.512495
 H         0.796221         1.315957         2.956186
