19
Iteration:  2511
 O        -2.686560         3.923117         1.551990
 C        -1.853476         2.755855         1.548249
 C        -1.468501         1.933913         0.444936
 C        -0.629585         0.937564         1.244787
 O         0.108397        -0.085422         0.637554
 C        -1.615198         0.413659         2.339915
 C        -1.939836         1.800114         2.853525
 C        -0.797731         2.720997         2.670797
 C         0.334078         1.838594         2.089787
 H        -3.536886         3.599402         1.174676
 H        -2.292829         1.393119         0.031232
 H        -1.225953         2.571622        -0.510725
 H         0.765798         0.384816        -0.020777
 H        -2.397592        -0.285441         1.940166
 H        -0.998908        -0.101197         3.112875
 H        -2.796618         2.046751         3.486281
 H        -0.748663         3.585371         3.366088
 H         0.801583         2.600074         1.433014
 H         1.004414         1.392361         2.770307
