19
Iteration:  3919
 O        -2.743940         3.845303         1.397525
 C        -1.962976         2.656232         1.632149
 C        -1.489050         1.886706         0.474551
 C        -0.568935         0.959549         1.244810
 O         0.114107         0.020537         0.495172
 C        -1.582135         0.478943         2.402043
 C        -1.931424         1.829714         2.939012
 C        -0.793327         2.685216         2.681826
 C         0.301698         1.900205         2.022715
 H        -2.505514         4.440415         2.105922
 H        -2.126931         1.512667        -0.312274
 H        -0.850779         2.608263        -0.079799
 H         0.080050        -0.837782         1.071123
 H        -2.373827        -0.081618         1.886407
 H        -0.957079        -0.266293         3.003635
 H        -2.594916         2.075642         3.809983
 H        -0.693949         3.557122         3.310696
 H         1.109913         2.411970         1.390683
 H         0.973662         1.368974         2.864593
