19
Iteration:  1655charge 0 multiplicity 1
 O        -2.786142         3.857648         1.456755
 C        -1.795221         2.855667         1.614401
 C        -1.375419         1.934411         0.512690
 C        -0.574557         0.898962         1.343055
 O         0.089097         0.028980         0.437311
 C        -1.597090         0.379213         2.344086
 C        -2.059463         1.799532         2.796673
 C        -0.806837         2.686828         2.722316
 C         0.356083         1.830279         2.210304
 H        -2.435005         4.599210         0.951698
 H        -2.274050         1.607563        -0.052871
 H        -0.653330         2.384779        -0.186623
 H        -0.456570        -0.582758         0.013885
 H        -2.440759        -0.121839         1.787848
 H        -1.154613        -0.255409         3.167383
 H        -2.806135         1.867129         3.570496
 H        -0.661357         3.406544         3.492798
 H         1.008552         2.426558         1.523917
 H         0.931603         1.266682         3.015969
