19
Iteration:  1647charge 0 multiplicity 1
 O        -2.806397         3.921905         1.505985
 C        -1.835551         2.767587         1.670396
 C        -1.403389         1.903022         0.509238
 C        -0.511743         0.890694         1.271583
 O         0.167317        -0.038773         0.469852
 C        -1.594656         0.482480         2.282248
 C        -2.090520         1.800452         2.788266
 C        -0.768706         2.676311         2.684917
 C         0.300183         1.854138         2.178599
 H        -2.350799         4.757042         1.303275
 H        -2.256852         1.453308         0.029614
 H        -0.742662         2.359337        -0.315307
 H        -0.516783        -0.689150         0.255371
 H        -2.477617         0.044808         1.782794
 H        -1.253649        -0.198270         2.976624
 H        -2.793541         1.857997         3.619260
 H        -0.608217         3.520299         3.406425
 H         1.126726         2.250734         1.646205
 H         0.629805         1.419490         3.168309
