19
Iteration:  4747
 O        -2.797737         3.744086         1.420181
 C        -1.937841         2.705055         1.652025
 C        -1.626630         1.837577         0.476682
 C        -0.618194         0.958133         1.243890
 O         0.078687         0.035622         0.452425
 C        -1.473173         0.493732         2.509759
 C        -1.951755         1.928727         2.954494
 C        -0.700250         2.727059         2.680094
 C         0.369910         1.852802         1.972363
 H        -2.166751         4.446036         1.276493
 H        -2.562807         1.336869         0.173249
 H        -1.134525         2.420530        -0.335237
 H         0.418690        -0.742501         0.799920
 H        -2.282755        -0.226618         2.185404
 H        -0.779355         0.101725         3.281222
 H        -2.613798         2.275722         3.792583
 H        -0.447182         3.685120         3.104134
 H         1.121919         2.369902         1.328095
 H         0.872182         1.220464         2.665348
