19
Iteration:  3930
 O        -2.772280         3.847663         1.396794
 C        -2.059532         2.728709         1.688634
 C        -1.433337         2.032459         0.433683
 C        -0.613382         0.957044         1.237059
 O         0.108478        -0.108021         0.564698
 C        -1.484509         0.437170         2.349078
 C        -1.962499         1.787067         2.887917
 C        -0.748290         2.680936         2.669164
 C         0.342744         1.935707         2.034469
 H        -2.777951         4.443454         2.150241
 H        -2.097571         1.506596        -0.245129
 H        -0.747994         2.739752        -0.064261
 H         0.078369        -0.920942         1.054114
 H        -2.383097        -0.090915         2.001456
 H        -1.049964        -0.062143         3.263265
 H        -2.612291         1.887269         3.816458
 H        -0.420511         3.538626         3.238209
 H         0.813979         2.700809         1.331830
 H         0.994374         1.113334         2.569844
