19
Iteration:  4925charge 0 multiplicity 1
 O        -2.922777         3.729393         1.591062
 C        -1.931279         2.727721         1.629868
 C        -1.524005         1.880616         0.447797
 C        -0.597776         0.937535         1.259309
 O         0.119196        -0.109193         0.482793
 C        -1.616051         0.527500         2.395907
 C        -1.932269         1.944358         2.833587
 C        -0.624820         2.834411         2.592840
 C         0.418071         1.852420         2.044129
 H        -2.512141         4.575257         1.368312
 H        -2.358157         1.294030        -0.029635
 H        -0.831194         2.286702        -0.321746
 H         0.426935        -0.724285         1.101962
 H        -2.473345         0.142283         1.897622
 H        -1.289808        -0.177281         3.243341
 H        -2.513551         2.285258         3.725358
 H        -0.346626         3.767212         3.154856
 H         1.228719         2.354984         1.500065
 H         0.889814         1.214204         2.843034
