19
Iteration:  4361
 O        -2.777938         3.797185         1.459313
 C        -1.927242         2.636301         1.697527
 C        -1.376747         1.875425         0.428976
 C        -0.590902         0.927193         1.288514
 O        -0.240776        -0.113738         0.437012
 C        -1.394176         0.501019         2.544315
 C        -1.894489         1.883288         2.987748
 C        -0.739749         2.816590         2.627572
 C         0.419950         2.020703         1.928183
 H        -3.523595         3.557322         0.912594
 H        -2.177840         1.343789        -0.128531
 H        -0.816346         2.558822        -0.221356
 H         0.159113        -0.866133         1.055191
 H        -2.100677        -0.290597         2.161432
 H        -0.658379         0.069550         3.195981
 H        -2.500863         2.243191         3.802561
 H        -0.537330         3.746368         3.169125
 H         1.034504         2.672808         1.180261
 H         1.125228         1.504127         2.606267
