19
Iteration:  3497charge 0 multiplicity 1
 O        -2.755837         3.932111         1.526199
 C        -1.891114         2.828044         1.644960
 C        -1.525567         1.903016         0.526314
 C        -0.530219         0.883753         1.248268
 O         0.176448        -0.057439         0.419953
 C        -1.524004         0.443162         2.291775
 C        -1.999398         1.777894         2.824250
 C        -0.784089         2.759972         2.616368
 C         0.279390         1.894354         2.227381
 H        -3.509217         3.599844         0.996182
 H        -2.514143         1.506910         0.095923
 H        -1.026171         2.453882        -0.260770
 H         0.319019        -0.883591         0.921889
 H        -2.355380        -0.237433         1.771565
 H        -0.961839        -0.132610         3.091249
 H        -2.534805         1.943365         3.772714
 H        -0.481070         3.617288         3.210491
 H         1.055761         2.385447         1.771602
 H         0.658242         1.280340         3.043589
