19
Iteration:  3620charge 0 multiplicity 1
 O        -2.716487         3.946381         1.539235
 C        -1.946946         2.770674         1.624429
 C        -1.361231         1.879951         0.477502
 C        -0.636950         0.856382         1.295625
 O         0.114107        -0.096253         0.539093
 C        -1.592761         0.400583         2.394093
 C        -1.911241         1.769136         2.888611
 C        -0.790694         2.807118         2.632469
 C         0.242813         1.879662         2.052575
 H        -3.148259         4.155878         0.721339
 H        -2.014110         1.385924        -0.220247
 H        -0.744587         2.520123        -0.191032
 H         0.622111         0.483478        -0.117875
 H        -2.477293        -0.231850         2.063229
 H        -1.058903        -0.277952         3.125083
 H        -2.615085         1.822895         3.666670
 H        -0.944561         3.598421         3.344855
 H         0.770043         2.477553         1.350936
 H         0.888278         1.498224         2.740392
