19
Iteration:  3493charge 0 multiplicity 1
 O        -2.729373         3.919706         1.519686
 C        -1.923556         2.829021         1.639221
 C        -1.532123         1.920001         0.485436
 C        -0.503413         0.908300         1.250794
 O         0.180013        -0.050358         0.433808
 C        -1.526442         0.431931         2.313833
 C        -2.036166         1.777101         2.854101
 C        -0.781637         2.752646         2.619249
 C         0.273996         1.874479         2.189591
 H        -3.616888         3.619156         1.218889
 H        -2.460330         1.480940         0.091791
 H        -0.892576         2.508409        -0.216860
 H         0.326833        -0.865403         1.010621
 H        -2.318367        -0.063936         1.808449
 H        -1.056198        -0.149759         3.104390
 H        -2.590654         1.825429         3.764774
 H        -0.494742         3.629483         3.179181
 H         1.156453         2.356954         1.656000
 H         0.767746         1.237550         3.003471
