19
Iteration:   793charge 0 multiplicity 1
 O        -2.552369         3.867376         1.475600
 C        -1.889736         2.726888         1.688157
 C        -1.339965         2.048152         0.480981
 C        -0.510247         0.944522         1.330747
 O         0.079262         0.043181         0.430313
 C        -1.619791         0.394075         2.206467
 C        -2.134339         1.716584         2.776020
 C        -0.904664         2.644387         2.793859
 C         0.217146         1.817227         2.257905
 H        -2.896173         3.882450         0.531343
 H        -2.140075         1.769642        -0.182579
 H        -0.745202         2.807700         0.040184
 H         0.851869         0.634901         0.078850
 H        -2.343764        -0.321961         1.748809
 H        -1.187090        -0.229678         2.967682
 H        -2.866023         1.842729         3.604884
 H        -0.809339         3.429508         3.557678
 H         1.031138         2.288858         1.726027
 H         0.529835         1.223360         3.135459
