19
Iteration:  1538
 O        -2.830651         3.744944         1.324912
 C        -1.866106         2.812501         1.633966
 C        -1.361473         2.029925         0.524145
 C        -0.636247         0.897361         1.298208
 O         0.097420         0.116223         0.365664
 C        -1.648034         0.378522         2.471697
 C        -1.960173         1.854472         2.880442
 C        -0.660136         2.697739         2.744810
 C         0.331077         1.732324         2.261334
 H        -2.599571         4.293037         0.557400
 H        -2.120859         1.685577        -0.154943
 H        -0.633225         2.565984        -0.219152
 H        -0.543952        -0.212395        -0.199887
 H        -2.584201        -0.110283         2.132113
 H        -1.207758        -0.105649         3.306043
 H        -2.747317         1.946176         3.636486
 H        -0.402724         3.492490         3.417793
 H         1.131347         2.188140         1.783212
 H         0.728358         1.045633         3.025326
