19
Iteration:  3770
 O        -2.763391         3.892948         1.376065
 C        -2.028728         2.761991         1.683915
 C        -1.392737         1.888172         0.435950
 C        -0.624219         0.878764         1.360825
 O         0.071977        -0.033630         0.409555
 C        -1.511506         0.398994         2.451967
 C        -1.943956         1.801679         2.953661
 C        -0.852892         2.735780         2.623764
 C         0.325976         1.877525         2.075905
 H        -2.158110         4.551212         1.696459
 H        -2.100524         1.332334        -0.243398
 H        -0.673803         2.558385         0.009033
 H         1.018625         0.236973         0.614529
 H        -2.433405        -0.033145         2.072687
 H        -1.130500        -0.186449         3.209309
 H        -2.693816         1.868245         3.742545
 H        -0.712635         3.569979         3.282763
 H         0.973002         2.311829         1.282327
 H         0.972087         1.322913         2.833652
