19
Iteration:   859charge 0 multiplicity 1
 O        -2.792813         3.857454         1.694975
 C        -1.902227         2.725255         1.622864
 C        -1.229836         2.086839         0.331201
 C        -0.502835         0.933416         1.245541
 O         0.089733        -0.028825         0.683957
 C        -1.722186         0.424831         2.129562
 C        -2.105986         1.738473         2.756656
 C        -0.797439         2.656212         2.700816
 C         0.317891         1.841598         2.156943
 H        -2.552798         4.329405         0.914974
 H        -1.963348         1.671964        -0.355401
 H        -0.477938         2.770393        -0.086964
 H         0.946383         0.002531         0.386325
 H        -2.447888        -0.102932         1.449501
 H        -1.471559        -0.369649         2.823649
 H        -2.983754         1.984997         3.451600
 H        -0.765647         3.436069         3.492758
 H         1.155310         2.335041         1.741528
 H         0.789198         1.202317         2.919051
