19
Iteration:  4243
 O        -2.825556         3.726284         1.370166
 C        -1.802287         2.760278         1.698828
 C        -1.486315         1.953965         0.471325
 C        -0.600273         0.908626         1.273768
 O        -0.185721        -0.215380         0.551065
 C        -1.418493         0.517974         2.511508
 C        -1.958665         1.876085         2.842790
 C        -0.652374         2.839087         2.624489
 C         0.396191         1.958079         1.994307
 H        -3.388615         3.732516         2.197588
 H        -2.427640         1.500603         0.110578
 H        -0.802150         2.559701        -0.204818
 H         0.303485         0.052967        -0.240953
 H        -1.966763        -0.398797         2.131221
 H        -0.585090         0.326786         3.172074
 H        -2.598032         1.986347         3.644752
 H        -0.520824         3.690255         3.277837
 H         1.199622         2.545489         1.469255
 H         0.896504         1.452186         2.803285
