19
Iteration:  2472
 O        -2.661309         3.986799         1.526883
 C        -2.020496         2.703234         1.682093
 C        -1.433267         1.898864         0.449342
 C        -0.516868         0.908939         1.262170
 O         0.127600        -0.109665         0.448420
 C        -1.581332         0.454758         2.348969
 C        -1.983075         1.813469         2.914374
 C        -0.852587         2.694304         2.623252
 C         0.330452         1.950771         2.086488
 H        -3.531788         3.941324         1.056052
 H        -2.255352         1.257978         0.024990
 H        -0.909026         2.473311        -0.236125
 H         0.531980        -0.674993         1.088943
 H        -2.416470        -0.177214         2.044287
 H        -1.096132        -0.172095         3.117378
 H        -2.764388         1.984766         3.704055
 H        -0.697676         3.635418         3.149757
 H         0.912642         2.535070         1.397182
 H         1.130697         1.475549         2.755670
