19
Iteration:  1122
 O        -2.801281         3.871033         1.558714
 C        -1.881866         2.824081         1.659238
 C        -1.299144         2.016699         0.346247
 C        -0.548992         0.980197         1.189472
 O        -0.004672        -0.210735         0.524589
 C        -1.567563         0.450872         2.275800
 C        -1.955896         1.791919         2.826876
 C        -0.812335         2.767957         2.810569
 C         0.338805         1.856717         2.179303
 H        -3.575309         3.442078         1.131566
 H        -2.126920         1.623284        -0.298810
 H        -0.627076         2.711566        -0.249728
 H         0.912331        -0.215361         0.643493
 H        -2.498888         0.130156         1.730611
 H        -1.247334        -0.362279         2.904955
 H        -2.889430         1.913651         3.447865
 H        -0.701458         3.620118         3.495157
 H         1.061563         2.453599         1.594842
 H         0.983961         1.257153         2.931484
