19
Iteration:  1780
 O        -2.722245         3.912078         1.308951
 C        -1.929543         2.808629         1.691213
 C        -1.440704         1.988258         0.552429
 C        -0.506133         0.947490         1.304434
 O         0.022304        -0.038464         0.456982
 C        -1.552170         0.391014         2.280429
 C        -2.020753         1.710262         2.833083
 C        -0.810934         2.678357         2.725274
 C         0.311042         1.854385         2.152967
 H        -2.339007         4.546962         1.937021
 H        -2.110546         1.249305         0.176696
 H        -1.055909         2.633072        -0.289234
 H         0.782796        -0.369210         0.910741
 H        -2.412891        -0.088254         1.829333
 H        -1.180934        -0.302113         2.986442
 H        -2.650396         1.733602         3.725172
 H        -0.665792         3.419951         3.460935
 H         0.941606         2.541065         1.637581
 H         0.947558         1.518075         2.987753
