19
Iteration:  3485charge 0 multiplicity 1
 O        -2.702169         3.919367         1.504782
 C        -1.955435         2.734338         1.665646
 C        -1.478653         1.954895         0.426455
 C        -0.532757         0.964680         1.263223
 O         0.171140        -0.020893         0.472975
 C        -1.544251         0.427282         2.348512
 C        -2.040423         1.805642         2.874974
 C        -0.820268         2.758638         2.660307
 C         0.357599         1.826407         2.072869
 H        -3.641427         3.693446         1.626749
 H        -2.240744         1.306163        -0.134394
 H        -0.923132         2.533804        -0.306638
 H         0.350519        -0.798478         1.123559
 H        -2.452152        -0.110241         1.848061
 H        -1.198898        -0.294515         3.142162
 H        -2.767359         1.810913         3.672147
 H        -0.697154         3.613498         3.300881
 H         1.082577         2.319743         1.519023
 H         0.837514         1.299536         2.923524
