19
Iteration:  3610
 O        -2.671389         3.898701         1.603342
 C        -1.888381         2.733596         1.581520
 C        -1.447731         1.917280         0.445932
 C        -0.616121         0.887889         1.310697
 O         0.133828        -0.074460         0.523438
 C        -1.618407         0.381515         2.402903
 C        -1.969649         1.847361         2.859428
 C        -0.855628         2.757399         2.608317
 C         0.290303         1.867128         2.091658
 H        -3.309612         3.748501         0.886574
 H        -2.275454         1.423637        -0.058678
 H        -0.765546         2.453692        -0.321228
 H         0.932436         0.437826         0.100395
 H        -2.547113        -0.127802         2.038168
 H        -0.964474        -0.196174         3.120766
 H        -2.746337         2.151782         3.503213
 H        -0.551646         3.683375         3.073678
 H         0.871767         2.416952         1.304295
 H         0.898843         1.510272         2.839808
