19
Iteration:  2907
 O        -2.588568         3.933491         1.458140
 C        -1.879325         2.715495         1.663524
 C        -1.477882         1.881111         0.497200
 C        -0.568725         0.912505         1.295340
 O         0.141914         0.094229         0.423381
 C        -1.672597         0.384809         2.322920
 C        -2.033352         1.757311         2.865964
 C        -0.851217         2.706796         2.684882
 C         0.335788         1.874194         2.150330
 H        -3.442654         3.880575         0.958995
 H        -2.298380         1.382246         0.089449
 H        -1.042864         2.336620        -0.372673
 H         0.615643        -0.483302         1.019959
 H        -2.513302        -0.110416         1.805482
 H        -1.337124        -0.252450         3.199105
 H        -2.738369         1.879461         3.703412
 H        -0.700428         3.588013         3.306388
 H         1.068419         2.491834         1.546599
 H         0.985746         1.465511         2.981981
