19
Iteration:  3470
 O        -2.684072         3.858880         1.502869
 C        -1.969714         2.663056         1.597263
 C        -1.344904         1.900458         0.413504
 C        -0.603955         0.940745         1.259683
 O         0.085586         0.035882         0.554310
 C        -1.680723         0.434818         2.336489
 C        -1.996756         1.766549         2.848379
 C        -0.782168         2.653603         2.715195
 C         0.350425         1.977519         2.041324
 H        -3.344581         3.946153         2.198092
 H        -2.110742         1.463046        -0.202332
 H        -0.666554         2.691157        -0.050557
 H         0.522679        -0.614368         1.166624
 H        -2.441318        -0.127855         1.917333
 H        -0.984449        -0.038867         3.011962
 H        -2.740428         2.151395         3.548304
 H        -0.745043         3.579314         3.315377
 H         0.899918         2.606257         1.199251
 H         1.193175         1.386815         2.543708
