19
Iteration:  4380
 O        -2.873155         3.748959         1.347897
 C        -1.888860         2.861135         1.666038
 C        -1.484565         1.983614         0.524095
 C        -0.566509         0.900556         1.310646
 O        -0.204148        -0.129159         0.423601
 C        -1.369519         0.505987         2.564467
 C        -1.859863         1.876658         2.872811
 C        -0.670381         2.789112         2.647957
 C         0.423028         1.879004         1.963911
 H        -3.663063         3.286682         1.635875
 H        -2.278281         1.512289        -0.051099
 H        -0.813569         2.449527        -0.149379
 H         0.381130        -0.741928         1.012242
 H        -2.272687        -0.087049         2.445697
 H        -0.655219         0.046918         3.298698
 H        -2.527767         1.904677         3.680818
 H        -0.347841         3.603025         3.304772
 H         0.939005         2.502229         1.312886
 H         1.139138         1.457967         2.663295
