19
Iteration:  4412charge 0 multiplicity 1
 O        -2.822396         3.760553         1.487942
 C        -1.923686         2.738571         1.652817
 C        -1.583505         1.798960         0.483833
 C        -0.593746         0.909123         1.301231
 O         0.022068        -0.079692         0.471029
 C        -1.570548         0.564754         2.463707
 C        -1.795780         1.940881         2.899044
 C        -0.703269         2.865391         2.508494
 C         0.412121         1.845764         1.986626
 H        -3.199057         4.077765         2.326173
 H        -2.339390         1.096279         0.115274
 H        -1.176650         2.334321        -0.345870
 H         0.744358        -0.530698         0.946566
 H        -2.557296         0.312467         2.073299
 H        -1.220962        -0.271049         3.163839
 H        -2.426451         2.013878         3.728744
 H        -0.304247         3.745052         3.018847
 H         1.065108         2.363051         1.371080
 H         0.991155         1.404362         2.808793
