19
Iteration:  1197
 O        -2.571164         4.042057         1.580502
 C        -2.021010         2.723032         1.673606
 C        -1.537005         1.932879         0.483703
 C        -0.571064         0.938901         1.310167
 O         0.243440        -0.099204         0.625764
 C        -1.561902         0.406324         2.260679
 C        -2.078266         1.724891         2.752803
 C        -0.811187         2.710064         2.660133
 C         0.353363         1.899257         2.036086
 H        -3.491411         3.805945         1.362536
 H        -2.324667         1.405725         0.087376
 H        -1.023424         2.515535        -0.285557
 H        -0.057097         0.019230        -0.353403
 H        -2.422207        -0.146032         1.778310
 H        -1.173776        -0.238831         3.041580
 H        -2.975220         1.690256         3.418418
 H        -0.767991         3.543662         3.341517
 H         1.099492         2.382906         1.421119
 H         0.795640         1.317970         2.882376
