19
Iteration:  2204charge 0 multiplicity 1
 O        -2.628573         3.863991         1.410861
 C        -1.915839         2.758865         1.742201
 C        -1.533022         1.869943         0.512971
 C        -0.605122         0.894432         1.258165
 O         0.211948         0.052019         0.462335
 C        -1.541999         0.447057         2.443320
 C        -2.040920         1.846352         2.907310
 C        -0.811809         2.699341         2.666447
 C         0.307585         1.828185         2.078270
 H        -3.443012         3.706623         0.947707
 H        -2.398936         1.413617        -0.059367
 H        -1.035421         2.551029        -0.263146
 H        -0.272786        -0.077839        -0.317363
 H        -2.296224        -0.293294         2.029108
 H        -0.826610         0.068652         3.162322
 H        -2.654236         1.956562         3.765406
 H        -0.713892         3.597590         3.287310
 H         0.916974         2.411707         1.329530
 H         0.770505         1.282613         2.957825
