19
Iteration:  2265charge 0 multiplicity 1
 O        -2.785421         3.857385         1.614499
 C        -1.955720         2.720764         1.624458
 C        -1.364310         1.964971         0.351585
 C        -0.560564         0.927539         1.198934
 O         0.127571        -0.076071         0.661690
 C        -1.561609         0.495957         2.395136
 C        -1.981892         1.809370         2.857707
 C        -0.768733         2.710721         2.648453
 C         0.332215         1.900878         1.964101
 H        -3.686167         3.583778         1.710416
 H        -2.034197         1.563062        -0.470192
 H        -0.605127         2.682787        -0.003852
 H        -0.470565        -0.642153         0.157382
 H        -2.263658        -0.185510         1.969249
 H        -0.951672        -0.093350         3.153032
 H        -2.821366         2.088718         3.461045
 H        -0.618579         3.716912         2.997932
 H         1.144978         2.422684         1.470507
 H         0.839153         1.401717         2.769004
