19
Iteration:  4152charge 0 multiplicity 1
 O        -2.701685         3.903345         1.563123
 C        -1.986944         2.704435         1.639599
 C        -1.475616         1.966208         0.461376
 C        -0.549217         0.903745         1.298886
 O        -0.007304        -0.131030         0.466178
 C        -1.367292         0.459981         2.513052
 C        -2.015026         1.815745         2.852601
 C        -0.769897         2.750227         2.580854
 C         0.318829         1.924421         1.958732
 H        -3.003870         4.075082         0.651492
 H        -2.308115         1.396774         0.016363
 H        -0.923805         2.565951        -0.216508
 H        -0.094118        -0.860390         1.012637
 H        -2.102135        -0.298825         2.336218
 H        -0.756395         0.286958         3.363190
 H        -2.809566         2.093437         3.656441
 H        -0.763105         3.519462         3.399314
 H         0.815461         2.454289         1.105128
 H         1.106106         1.513565         2.654694
