19
Iteration:  3722charge 0 multiplicity 1
 O        -2.800548         3.853768         1.478755
 C        -1.863300         2.800517         1.625299
 C        -1.487200         1.917050         0.357141
 C        -0.549592         0.979869         1.228162
 O         0.055997        -0.139535         0.606051
 C        -1.554670         0.418960         2.358213
 C        -1.921874         1.789425         2.834336
 C        -0.806255         2.744103         2.707666
 C         0.288537         1.875631         2.076320
 H        -2.407282         4.518853         2.105690
 H        -2.464875         1.515274         0.182817
 H        -0.967216         2.485132        -0.429326
 H         1.022764        -0.086569         0.555637
 H        -2.439375        -0.104276         1.991221
 H        -0.890168        -0.213107         3.039110
 H        -2.697189         1.814625         3.607984
 H        -0.647496         3.713292         3.227037
 H         0.894814         2.576816         1.457698
 H         0.907134         1.438759         2.765702
