19
Iteration:  1471
 O        -2.729327         4.001414         1.739730
 C        -1.972877         2.783164         1.635726
 C        -1.467304         1.914702         0.268974
 C        -0.580454         0.949355         1.152723
 O         0.287381        -0.156831         0.704275
 C        -1.589260         0.485574         2.273504
 C        -2.110653         1.778040         2.737922
 C        -0.848194         2.676114         2.625910
 C         0.305911         1.873479         2.081673
 H        -2.037341         4.677259         1.869661
 H        -2.178498         1.329371        -0.338522
 H        -0.742554         2.568542        -0.323552
 H        -0.362322        -0.949328         0.582577
 H        -2.404420        -0.178866         1.879398
 H        -0.992106        -0.099011         2.916941
 H        -2.719348         1.735197         3.667668
 H        -0.538370         3.580565         3.160713
 H         0.972536         2.482097         1.546713
 H         0.900963         1.219939         2.734269
