19
Iteration:  4045charge 0 multiplicity 1
 O        -2.649187         3.801231         1.543472
 C        -1.917603         2.686913         1.661053
 C        -1.524587         1.867217         0.449710
 C        -0.516983         0.979463         1.329866
 O        -0.048688        -0.123342         0.499830
 C        -1.514617         0.493309         2.351735
 C        -2.054101         1.811080         2.830600
 C        -0.794345         2.760535         2.669409
 C         0.373929         2.056970         2.022451
 H        -2.217808         4.208168         0.768291
 H        -2.169579         1.013580         0.097899
 H        -1.205136         2.563490        -0.371406
 H         0.752837        -0.512991         0.820312
 H        -2.343466        -0.245599         2.054485
 H        -0.849720         0.037310         3.205717
 H        -2.775820         1.708385         3.709195
 H        -0.906103         3.570040         3.383281
 H         0.860512         2.707094         1.239129
 H         1.067364         1.637948         2.733931
