19
Iteration:  3174
 O        -2.682461         3.930554         1.335172
 C        -1.908974         2.773366         1.703737
 C        -1.408477         1.961978         0.478347
 C        -0.559243         0.894609         1.311020
 O         0.168466         0.019797         0.488369
 C        -1.585369         0.370222         2.318050
 C        -2.048058         1.755086         2.872944
 C        -0.802329         2.658591         2.798976
 C         0.304621         1.899580         2.159299
 H        -3.668849         3.887440         1.352632
 H        -2.172171         1.582821        -0.152229
 H        -0.679274         2.510875        -0.160970
 H        -0.491582        -0.395887        -0.121145
 H        -2.416559        -0.178225         1.756608
 H        -1.011768        -0.349190         3.053984
 H        -2.580922         2.053819         3.785195
 H        -0.654500         3.547337         3.439130
 H         0.762287         2.465031         1.381766
 H         0.916916         1.314473         2.891121
