19
Iteration:  3404charge 0 multiplicity 1
 O        -2.789706         3.775584         1.500763
 C        -1.888831         2.703682         1.620174
 C        -1.413068         1.941887         0.482271
 C        -0.586357         0.963389         1.287353
 O         0.086225         0.040762         0.438049
 C        -1.636212         0.391716         2.394423
 C        -1.987067         1.850869         2.885035
 C        -0.796189         2.761330         2.617889
 C         0.331698         1.788864         2.178234
 H        -2.263652         4.406534         0.950423
 H        -2.217224         1.433344        -0.063964
 H        -0.665690         2.537239        -0.195088
 H         1.011306         0.305622         0.274640
 H        -2.555644        -0.079826         2.096545
 H        -1.019288        -0.211454         3.118866
 H        -2.905128         2.071414         3.471962
 H        -0.665659         3.619110         3.296950
 H         1.180227         2.286176         1.532449
 H         0.733146         1.145177         3.022641
