19
Iteration:  4955charge 0 multiplicity 1
 O        -2.855573         3.752203         1.594840
 C        -1.814264         2.766337         1.558802
 C        -1.389825         1.851166         0.457948
 C        -0.668428         0.919138         1.331174
 O        -0.030353         0.000789         0.411480
 C        -1.567193         0.460426         2.459202
 C        -1.860947         1.917726         2.837263
 C        -0.722669         2.877043         2.643576
 C         0.379373         1.833389         2.096045
 H        -3.327450         3.796751         0.710774
 H        -2.163400         1.265723        -0.031133
 H        -0.590430         2.057837        -0.220263
 H         0.572346        -0.635548         0.926362
 H        -2.496647         0.012886         2.040318
 H        -1.111094        -0.175109         3.200475
 H        -2.685176         2.182404         3.554610
 H        -0.568819         3.890464         3.154842
 H         1.064848         2.308736         1.268902
 H         0.877238         1.151738         2.798560
