19
Iteration:   243
 O        -2.468119         4.060767         1.544573
 C        -1.977368         2.801656         1.745052
 C        -1.473728         1.910486         0.459499
 C        -0.481834         0.911327         1.221110
 O         0.272339        -0.013405         0.355365
 C        -1.640644         0.355850         2.230430
 C        -2.248585         1.663306         2.814339
 C        -0.962471         2.625983         2.769490
 C         0.296373         1.949762         2.192653
 H        -3.257792         4.140432         0.963504
 H        -2.372227         1.349321         0.254740
 H        -1.115283         2.534467        -0.374268
 H         0.880435        -0.521625         0.992948
 H        -2.406584        -0.248364         1.795065
 H        -1.129615        -0.234659         3.031061
 H        -2.761105         1.604988         3.753583
 H        -0.950246         3.398997         3.516285
 H         0.920179         2.539856         1.587827
 H         0.869512         1.467945         2.992658
