19
Iteration:  3481
 O        -2.695066         3.920492         1.500310
 C        -1.965937         2.680245         1.673293
 C        -1.441246         1.947746         0.413837
 C        -0.569739         0.971691         1.261846
 O         0.159659        -0.006124         0.500573
 C        -1.581661         0.425157         2.353550
 C        -2.018529         1.810633         2.871957
 C        -0.833225         2.747554         2.681937
 C         0.387002         1.829939         2.039730
 H        -3.618026         3.738448         1.799615
 H        -2.079547         1.321462        -0.187575
 H        -0.947137         2.591928        -0.371854
 H         0.360568        -0.693994         1.077928
 H        -2.368273        -0.110014         1.919184
 H        -1.200533        -0.272653         3.088646
 H        -2.834803         1.919268         3.588901
 H        -0.789696         3.603511         3.368716
 H         1.120558         2.428932         1.360002
 H         0.885102         1.296727         2.893129
