19
Iteration:  3953
 O        -2.845730         3.817925         1.469507
 C        -1.812482         2.895661         1.630089
 C        -1.432484         1.974161         0.513488
 C        -0.546442         0.919194         1.241043
 O         0.040949        -0.189937         0.565957
 C        -1.492018         0.427032         2.316270
 C        -1.995999         1.772542         2.786319
 C        -0.819501         2.757024         2.677270
 C         0.408766         2.019033         2.032143
 H        -3.139384         3.987021         2.385288
 H        -2.279277         1.512254        -0.011970
 H        -0.825744         2.552288        -0.203911
 H        -0.189887        -1.069114         1.076585
 H        -2.242543        -0.154620         1.761260
 H        -0.962125        -0.126983         3.185369
 H        -2.775559         2.185479         3.477693
 H        -0.602394         3.406612         3.526363
 H         0.966444         2.566614         1.178470
 H         0.884439         1.319195         2.798615
