19
Iteration:  4134charge 0 multiplicity 1
 O        -2.760209         3.890094         1.495468
 C        -1.899203         2.757214         1.649643
 C        -1.460036         1.883035         0.526815
 C        -0.536605         0.880518         1.289531
 O        -0.095309        -0.138745         0.428280
 C        -1.539530         0.420997         2.486605
 C        -1.945511         1.810397         2.908135
 C        -0.737117         2.823349         2.595792
 C         0.434650         2.022622         2.004780
 H        -3.492998         3.536073         0.961442
 H        -2.138743         1.351997        -0.166092
 H        -0.757261         2.510285        -0.106982
 H         0.311381        -0.804057         0.933062
 H        -2.315537        -0.167662         1.912365
 H        -0.900038        -0.212590         3.159358
 H        -2.512453         1.914576         3.825587
 H        -0.648493         3.796844         3.096008
 H         1.031619         2.684096         1.369240
 H         0.980716         1.595262         2.809158
