19
Iteration:   229charge 0 multiplicity 1
 O        -2.532779         4.153935         1.577121
 C        -1.987732         2.717226         1.660738
 C        -1.499887         1.919460         0.494920
 C        -0.539933         0.949496         1.295320
 O         0.255912         0.040099         0.483129
 C        -1.600604         0.324669         2.188290
 C        -2.082310         1.640247         2.813874
 C        -0.927378         2.608267         2.697969
 C         0.266053         1.876022         2.135160
 H        -3.476226         4.135836         1.220960
 H        -2.143319         1.345034        -0.292562
 H        -0.821614         2.539596        -0.121661
 H         0.407528        -0.725759         1.069704
 H        -2.291264        -0.164819         1.410914
 H        -1.309970        -0.395260         2.962981
 H        -2.820638         1.700503         3.618036
 H        -0.787664         3.462451         3.380657
 H         0.934648         2.641654         1.601374
 H         0.885082         1.344387         2.861682
