19
Iteration:  3852charge 0 multiplicity 1
 O        -2.733259         3.798572         1.528223
 C        -1.952748         2.691596         1.712570
 C        -1.437440         2.038813         0.469339
 C        -0.613858         0.939028         1.248959
 O         0.037036        -0.121043         0.558599
 C        -1.524678         0.396863         2.317895
 C        -1.972783         1.849506         2.875019
 C        -0.792569         2.730286         2.642924
 C         0.324798         1.901919         2.020073
 H        -2.657036         4.105298         0.602187
 H        -2.048518         1.859287        -0.404517
 H        -0.765314         2.839473         0.076209
 H         0.870050        -0.282484         0.876182
 H        -2.454805        -0.082810         2.010062
 H        -0.994537        -0.122828         3.182997
 H        -2.731106         2.126215         3.539732
 H        -0.712960         3.694722         3.123963
 H         1.015618         2.492018         1.360821
 H         0.915378         1.344932         2.916584
