19
Iteration:  4848
 O        -2.806640         3.865290         1.414048
 C        -1.924227         2.747584         1.631042
 C        -1.620911         1.751596         0.556796
 C        -0.563249         0.875238         1.297751
 O         0.050687         0.057699         0.397500
 C        -1.495736         0.413868         2.518479
 C        -1.923246         1.839189         2.888444
 C        -0.777725         2.821040         2.570780
 C         0.409050         1.879819         2.016446
 H        -2.349524         4.698852         1.686913
 H        -2.420420         1.071845         0.145915
 H        -1.171458         2.309846        -0.300345
 H         0.729410        -0.566357         0.786156
 H        -2.287951        -0.256171         2.220653
 H        -1.008954        -0.120152         3.416098
 H        -2.435540         2.223629         3.771439
 H        -0.681137         3.731939         3.222516
 H         1.276645         2.247079         1.523722
 H         0.861154         1.354745         2.881364
