19
Iteration:  2093charge 0 multiplicity 1
 O        -2.709843         3.955634         1.511904
 C        -1.907392         2.778209         1.666444
 C        -1.418122         1.855178         0.502268
 C        -0.548583         0.890721         1.283845
 O         0.197091        -0.037348         0.487161
 C        -1.589865         0.433800         2.386289
 C        -2.047916         1.804150         2.820589
 C        -0.811860         2.672228         2.620775
 C         0.342484         1.909100         2.121710
 H        -3.633928         3.673814         1.278204
 H        -2.341769         1.364338         0.081433
 H        -0.869639         2.421123        -0.333897
 H        -0.431197        -0.335352        -0.266027
 H        -2.357340        -0.144559         1.834246
 H        -1.133232        -0.148923         3.195730
 H        -2.585186         2.015607         3.767673
 H        -0.716156         3.512944         3.290765
 H         0.807373         2.649035         1.456015
 H         0.928255         1.582493         3.001054
