19
Iteration:   630
 O        -2.760605         3.936220         1.534458
 C        -1.877124         2.810789         1.707568
 C        -1.227308         2.033200         0.497334
 C        -0.509918         0.948174         1.340168
 O         0.111061         0.046527         0.458601
 C        -1.715748         0.362565         2.117315
 C        -2.169418         1.686536         2.732626
 C        -0.859807         2.600804         2.782205
 C         0.357160         1.801285         2.254149
 H        -2.843489         4.534326         0.814708
 H        -1.909905         1.582675        -0.277124
 H        -0.408127         2.575681        -0.011098
 H         1.004498         0.350725         0.363856
 H        -2.465502        -0.187961         1.462273
 H        -1.403148        -0.382780         2.842750
 H        -3.035503         1.832382         3.344129
 H        -0.748727         3.197245         3.683851
 H         1.286621         2.217020         1.786078
 H         0.610954         1.040011         3.040240
