19
Iteration:  2637
 O        -2.590889         3.914057         1.627827
 C        -1.903274         2.739554         1.634604
 C        -1.495844         1.970536         0.358696
 C        -0.563613         0.889127         1.263322
 O         0.152281        -0.043182         0.529355
 C        -1.562507         0.422480         2.372353
 C        -2.116850         1.763162         2.766578
 C        -0.815431         2.697485         2.691882
 C         0.289691         1.950764         2.053044
 H        -3.247325         3.828316         0.955958
 H        -2.149153         1.372353        -0.268332
 H        -0.891990         2.578703        -0.128152
 H         0.019723        -0.906487         1.015458
 H        -2.369458        -0.325968         2.142012
 H        -1.127033        -0.006446         3.339947
 H        -2.963825         1.982937         3.418934
 H        -0.518038         3.674652         3.146355
 H         0.931253         2.673125         1.519688
 H         1.029347         1.402791         2.768826
