19
Iteration:  2816charge 0 multiplicity 1
 O        -2.728733         3.910920         1.384694
 C        -1.949666         2.737686         1.684474
 C        -1.423428         1.960142         0.380413
 C        -0.582741         0.918382         1.211893
 O         0.118951         0.012664         0.427515
 C        -1.587195         0.456336         2.379675
 C        -1.951164         1.863933         2.917159
 C        -0.759264         2.697571         2.752981
 C         0.265798         1.810086         2.200772
 H        -3.636792         3.646683         1.145880
 H        -2.130373         1.533523        -0.310545
 H        -0.758740         2.483578        -0.183598
 H         0.444529        -0.606584         1.046796
 H        -2.390597        -0.175567         1.982229
 H        -1.098093        -0.318175         3.090978
 H        -2.635087         1.879485         3.735245
 H        -0.459572         3.368723         3.584141
 H         1.199911         2.334375         1.696706
 H         0.748525         1.159831         2.988567
