19
Iteration:  4213charge 0 multiplicity 1
 O        -2.927139         3.813374         1.444623
 C        -1.917721         2.700312         1.695966
 C        -1.504191         1.865671         0.465341
 C        -0.575253         0.863715         1.299908
 O         0.118532        -0.119006         0.590631
 C        -1.656859         0.494336         2.438003
 C        -1.845192         1.955994         2.987762
 C        -0.585636         2.796634         2.533392
 C         0.349589         1.904403         1.923945
 H        -2.726734         4.509127         2.086154
 H        -2.262191         1.312735        -0.111087
 H        -0.878976         2.386881        -0.334942
 H        -0.191136        -0.029057        -0.313494
 H        -2.473762        -0.096590         1.969594
 H        -1.262073        -0.341717         3.165409
 H        -2.480062         2.106262         3.861381
 H        -0.338489         3.661860         3.146294
 H         1.050087         2.339043         1.246359
 H         0.995476         1.464122         2.701495
