19
Iteration:  2395
 O        -2.739144         3.826904         1.545546
 C        -1.920973         2.741477         1.650499
 C        -1.397827         1.973603         0.452883
 C        -0.565747         0.891163         1.330021
 O         0.056037        -0.113818         0.631595
 C        -1.599043         0.451909         2.302581
 C        -1.929004         1.831756         2.850321
 C        -0.729175         2.794912         2.590700
 C         0.307317         1.910358         2.049444
 H        -3.682861         3.484232         1.525687
 H        -2.246802         1.348884        -0.101970
 H        -1.069213         2.687117        -0.312384
 H         0.764867         0.207492        -0.090320
 H        -2.456943         0.005149         1.892438
 H        -1.201201        -0.291271         2.992671
 H        -2.758024         1.868162         3.559839
 H        -0.525308         3.823563         2.970241
 H         0.929298         2.310954         1.295077
 H         0.868176         1.403087         2.838170
