19
Iteration:  2336charge 0 multiplicity 1
 O        -2.609181         3.932460         1.459330
 C        -1.981327         2.712770         1.667098
 C        -1.471434         1.878538         0.500190
 C        -0.618965         0.887027         1.310397
 O         0.118811         0.029911         0.455305
 C        -1.518564         0.344214         2.455029
 C        -2.013369         1.797528         2.908543
 C        -0.825344         2.731904         2.602505
 C         0.304008         2.001544         1.981737
 H        -3.453412         3.752886         1.075415
 H        -2.271948         1.473725        -0.070870
 H        -0.832938         2.544621        -0.057672
 H         0.247718        -0.758991         0.954516
 H        -2.428473        -0.307637         2.120889
 H        -0.932353        -0.213319         3.232219
 H        -2.707185         1.952203         3.765891
 H        -0.698004         3.539366         3.299076
 H         1.143589         2.407541         1.300525
 H         0.957736         1.379516         2.744399
