19
Iteration:  2290charge 0 multiplicity 1
 O        -2.853291         3.845096         1.476366
 C        -1.900720         2.888004         1.695668
 C        -1.441398         1.950289         0.514816
 C        -0.521607         0.893475         1.263700
 O         0.143514        -0.084757         0.469676
 C        -1.578660         0.431100         2.388199
 C        -1.943660         1.794664         2.761990
 C        -0.702723         2.836132         2.635915
 C         0.321370         1.859434         2.104419
 H        -3.741578         3.487564         1.501683
 H        -2.259322         1.445624         0.129084
 H        -0.873007         2.484171        -0.299120
 H        -0.472072        -0.906249         0.539702
 H        -2.370409        -0.243569         1.911473
 H        -1.015959        -0.121847         3.209740
 H        -2.600052         2.001766         3.604082
 H        -0.545158         3.532743         3.479581
 H         1.204053         2.394586         1.523830
 H         0.919794         1.332364         2.990240
