19
Iteration:  2498charge 0 multiplicity 1
 O        -2.655854         3.916841         1.569683
 C        -1.882521         2.791633         1.698381
 C        -1.506152         1.940685         0.401448
 C        -0.632449         0.880718         1.283765
 O         0.132968        -0.066277         0.608259
 C        -1.586925         0.389343         2.347645
 C        -2.059313         1.780940         2.778026
 C        -0.764575         2.710075         2.627469
 C         0.289047         1.923971         2.024951
 H        -3.406710         3.771748         0.966984
 H        -2.441982         1.485461         0.069679
 H        -0.745832         2.318935        -0.380086
 H         0.985209         0.274439         0.660347
 H        -2.364024        -0.285849         2.131291
 H        -0.997228        -0.101812         3.137499
 H        -2.672390         1.942573         3.623958
 H        -0.489692         3.579509         3.217217
 H         0.952877         2.363999         1.247112
 H         0.933854         1.434971         2.654469
