19
Iteration:  1455
 O        -2.715104         3.948663         1.656305
 C        -1.937186         2.761635         1.584812
 C        -1.454179         1.982107         0.451633
 C        -0.536496         0.853435         1.254735
 O         0.303876        -0.090796         0.571491
 C        -1.621085         0.413989         2.310060
 C        -2.113824         1.865761         2.750413
 C        -0.820201         2.667614         2.693262
 C         0.266517         1.838204         2.005635
 H        -2.133259         4.744703         1.747399
 H        -2.405644         1.556603        -0.053811
 H        -0.891302         2.606188        -0.209771
 H        -0.166306        -1.017091         0.540460
 H        -2.367434        -0.256464         1.892411
 H        -1.315667        -0.072650         3.292075
 H        -2.997291         2.209593         3.233060
 H        -0.754751         3.510609         3.376395
 H         0.964744         2.480041         1.311095
 H         0.925213         1.319042         2.732080
