19
Iteration:  3350
 O        -2.694860         3.934433         1.564200
 C        -1.948218         2.717012         1.690826
 C        -1.508632         2.003947         0.384156
 C        -0.535498         1.029973         1.227689
 O         0.067001        -0.186354         0.717981
 C        -1.486422         0.434826         2.141856
 C        -2.052763         1.718198         2.805297
 C        -0.794358         2.754586         2.692262
 C         0.328450         1.919320         2.141165
 H        -3.294811         3.751735         0.785428
 H        -2.402408         1.652078        -0.147186
 H        -0.816590         2.786801        -0.150416
 H         0.497930        -0.124706        -0.115624
 H        -2.232827        -0.208880         1.626102
 H        -0.878062        -0.168626         2.942228
 H        -2.518984         1.543896         3.787009
 H        -0.734483         3.628421         3.340015
 H         1.193582         2.369611         1.664909
 H         0.873855         1.267932         2.875992
