19
Iteration:  3879
 O        -2.817437         3.873044         1.480131
 C        -1.859214         2.827617         1.642075
 C        -1.486559         1.780330         0.456829
 C        -0.547126         0.919830         1.314791
 O         0.061584         0.025509         0.379744
 C        -1.525581         0.435262         2.402286
 C        -2.010646         1.869012         2.842972
 C        -0.815033         2.711813         2.702138
 C         0.404045         1.817609         2.141911
 H        -2.405207         4.605760         0.946928
 H        -2.410353         1.165889         0.192045
 H        -1.037720         2.179679        -0.479988
 H         0.830840        -0.373646         0.698179
 H        -2.434454        -0.097716         2.087594
 H        -1.033736        -0.005642         3.303059
 H        -2.827751         2.112947         3.583703
 H        -0.740403         3.404236         3.557304
 H         1.071920         2.419526         1.505012
 H         0.831014         1.277210         2.916274
