19
Iteration:  4029charge 0 multiplicity 1
 O        -2.691026         3.888660         1.465120
 C        -1.926004         2.748433         1.642010
 C        -1.537282         1.825228         0.514543
 C        -0.528584         0.969290         1.240459
 O         0.009415        -0.038185         0.482728
 C        -1.479714         0.450088         2.434955
 C        -2.027158         1.782288         2.859803
 C        -0.784974         2.674064         2.752985
 C         0.342205         1.967990         2.006148
 H        -2.811889         4.044232         0.494526
 H        -2.483309         1.404089         0.229981
 H        -0.984533         2.284039        -0.303692
 H         0.474424        -0.540395         1.097198
 H        -2.104650        -0.225120         1.912290
 H        -1.054147        -0.143069         3.198199
 H        -2.740299         2.098899         3.574093
 H        -0.543434         3.593034         3.297425
 H         0.913136         2.705204         1.442600
 H         1.208674         1.564264         2.591882
