19
Iteration:  2685
 O        -2.689340         3.852395         1.411329
 C        -1.945545         2.684138         1.659902
 C        -1.381922         1.931673         0.496636
 C        -0.563212         0.906830         1.313010
 O        -0.008966         0.003789         0.398936
 C        -1.685439         0.440777         2.264384
 C        -1.994735         1.787865         2.905751
 C        -0.744194         2.794767         2.651024
 C         0.450766         1.910693         2.296740
 H        -3.682574         3.688815         1.376657
 H        -2.187606         1.390438        -0.027180
 H        -0.776822         2.622204        -0.229749
 H         0.588239        -0.529337         0.895629
 H        -2.464220        -0.045229         1.660891
 H        -1.216503        -0.441931         2.870515
 H        -2.611735         2.099132         3.740531
 H        -0.761236         3.704225         3.201568
 H         1.257665         2.341635         1.530189
 H         1.073471         1.395581         3.072280
