19
Iteration:  3623
 O        -2.731790         3.963199         1.520714
 C        -1.955647         2.763199         1.650203
 C        -1.369248         1.877003         0.467114
 C        -0.617401         0.849925         1.282110
 O         0.102548        -0.098279         0.546133
 C        -1.572900         0.401021         2.384179
 C        -1.931451         1.752690         2.891752
 C        -0.790717         2.805900         2.645906
 C         0.244073         1.909738         2.050764
 H        -3.087955         4.183259         0.631752
 H        -2.070800         1.359203        -0.206966
 H        -0.582450         2.567669        -0.133907
 H         0.481539         0.403986        -0.114803
 H        -2.414030        -0.190332         2.043344
 H        -1.108040        -0.282786         3.167542
 H        -2.593377         1.780361         3.771192
 H        -0.867889         3.549260         3.417196
 H         0.949514         2.474788         1.282940
 H         0.953176         1.400510         2.727146
