19
Iteration:   154
 O        -2.746601         3.784450         1.422748
 C        -1.866995         2.741167         1.709606
 C        -1.300482         2.111013         0.529295
 C        -0.580759         0.965160         1.246822
 O         0.030702        -0.025261         0.494424
 C        -1.592796         0.374077         2.238790
 C        -1.988012         1.768519         2.868335
 C        -0.834465         2.703007         2.696585
 C         0.352611         1.850885         2.230183
 H        -3.637642         3.417725         1.432728
 H        -2.020803         1.817393        -0.223639
 H        -0.596497         2.799882         0.079384
 H         0.060221         0.351114        -0.411380
 H        -2.402964         0.098254         1.582181
 H        -1.225464        -0.436795         2.849481
 H        -2.698564         2.015748         3.677877
 H        -0.457736         3.462427         3.404409
 H         1.193997         2.315555         1.742982
 H         0.647266         1.243631         3.068603
