19
Iteration:  2360
 O        -2.702854         4.039595         1.573305
 C        -1.934552         2.756033         1.641077
 C        -1.493520         1.874649         0.406903
 C        -0.518921         0.896774         1.259305
 O         0.082220        -0.164708         0.497996
 C        -1.470716         0.432791         2.394972
 C        -2.012851         1.784254         2.784601
 C        -0.823083         2.715652         2.700192
 C         0.269627         1.961394         2.039559
 H        -3.484053         3.789559         1.032165
 H        -2.381193         1.211677         0.163900
 H        -1.133330         2.455346        -0.397636
 H         0.946610        -0.342844         1.067299
 H        -2.224849        -0.354489         2.137721
 H        -0.937575         0.140451         3.297340
 H        -2.754120         1.807127         3.554190
 H        -0.611218         3.571151         3.326559
 H         0.887063         2.558632         1.337723
 H         1.105203         1.511446         2.728315
