19
Iteration:  4212
 O        -2.923022         3.815442         1.450564
 C        -1.924505         2.699730         1.703316
 C        -1.509049         1.858815         0.476968
 C        -0.571143         0.860412         1.298011
 O         0.129350        -0.117489         0.595071
 C        -1.662124         0.496130         2.424653
 C        -1.857091         1.956927         2.991037
 C        -0.583353         2.792210         2.526021
 C         0.360364         1.911587         1.920528
 H        -2.709806         4.527322         2.048638
 H        -2.283221         1.325589        -0.111152
 H        -0.885937         2.355553        -0.349424
 H        -0.225843        -0.033156        -0.343805
 H        -2.497583        -0.096027         1.970475
 H        -1.303778        -0.318893         3.174284
 H        -2.447990         2.089293         3.850605
 H        -0.358407         3.668731         3.119991
 H         1.077179         2.333144         1.238777
 H         0.969134         1.466810         2.699062
