19
Iteration:  1394charge 0 multiplicity 1
 O        -2.864630         3.816389         1.443486
 C        -1.828193         2.807350         1.718990
 C        -1.292633         2.032643         0.521149
 C        -0.528432         0.889154         1.269569
 O         0.056651        -0.089194         0.425174
 C        -1.620633         0.386600         2.334252
 C        -2.065189         1.858793         2.801241
 C        -0.733992         2.744433         2.759499
 C         0.351409         1.833965         2.219274
 H        -2.784066         4.117137         0.498596
 H        -2.081320         1.785174        -0.185322
 H        -0.668820         2.736523        -0.127835
 H        -0.438267        -0.050209        -0.453788
 H        -2.331238        -0.360595         1.890064
 H        -1.128673         0.011317         3.205661
 H        -2.559100         2.096859         3.733489
 H        -0.664691         3.508590         3.569747
 H         1.181285         2.279491         1.771062
 H         0.687326         1.002458         2.827464
