19
Iteration:  4695
 O        -2.756473         3.837222         1.449412
 C        -1.976915         2.709238         1.663032
 C        -1.559068         1.830389         0.513859
 C        -0.526739         0.990843         1.220676
 O        -0.000277        -0.123016         0.498646
 C        -1.459767         0.514420         2.460413
 C        -1.946429         1.789158         2.908106
 C        -0.763679         2.815320         2.583855
 C         0.365348         1.932765         1.964306
 H        -2.555398         4.497916         2.097514
 H        -2.279059         1.153197        -0.053885
 H        -1.072683         2.460804        -0.290057
 H         0.307098        -0.806477         1.017679
 H        -2.309248        -0.088015         2.190296
 H        -0.814008         0.038465         3.282084
 H        -2.602795         1.960539         3.756688
 H        -0.455992         3.666671         3.177971
 H         0.878030         2.505141         1.217147
 H         1.085815         1.596772         2.764114
