19
Iteration:    38charge 0 multiplicity 1
 O        -2.904263         3.792295         1.401851
 C        -1.841908         2.828795         1.660866
 C        -1.265481         2.064337         0.498493
 C        -0.501366         0.953758         1.283478
 O        -0.051429        -0.054559         0.443139
 C        -1.518597         0.389090         2.327932
 C        -1.922183         1.759519         2.869497
 C        -0.781011         2.752573         2.708257
 C         0.358267         1.811223         2.187237
 H        -3.694236         3.547355         1.857445
 H        -2.049285         1.525737        -0.096848
 H        -0.710990         2.728971        -0.226632
 H        -0.018602         0.379826        -0.415236
 H        -2.351336        -0.066934         1.795251
 H        -1.040672        -0.208899         3.149668
 H        -2.656865         1.900939         3.693500
 H        -0.687740         3.424236         3.590775
 H         1.134119         2.413580         1.691222
 H         0.708737         1.238865         3.116880
