19
Iteration:  2956charge 0 multiplicity 1
 O        -2.653804         3.884002         1.462141
 C        -1.872687         2.727659         1.675309
 C        -1.409731         2.050519         0.411680
 C        -0.613098         0.985365         1.263249
 O         0.023335        -0.003826         0.508719
 C        -1.505725         0.398995         2.358115
 C        -2.058243         1.755434         2.843061
 C        -0.796365         2.701419         2.668772
 C         0.295065         1.830248         2.157094
 H        -3.552974         3.684299         1.235717
 H        -1.995557         1.665053        -0.523295
 H        -0.695771         2.771852        -0.158717
 H         0.587808        -0.658497         1.047038
 H        -2.144952        -0.256692         1.771919
 H        -0.978857        -0.213371         3.003358
 H        -2.836750         1.814908         3.621535
 H        -0.910546         3.544419         3.355422
 H         1.121083         2.287447         1.711707
 H         0.698336         1.289938         2.981833
