19
Iteration:  4082
 O        -2.902267         3.824170         1.469746
 C        -1.959315         2.818000         1.632734
 C        -1.464669         1.960073         0.457731
 C        -0.613428         0.844799         1.280358
 O         0.105663        -0.102705         0.507456
 C        -1.605428         0.492480         2.457592
 C        -1.919527         1.881250         2.854335
 C        -0.707309         2.815004         2.604103
 C         0.389297         1.751065         1.989949
 H        -2.841159         4.588877         2.094945
 H        -2.304362         1.483917        -0.060409
 H        -0.782275         2.396536        -0.327281
 H         0.954795        -0.146901         0.840920
 H        -2.404928        -0.226738         2.175073
 H        -0.844662        -0.030366         3.139339
 H        -2.479849         2.092251         3.717426
 H        -0.398707         3.473514         3.421379
 H         1.115782         2.135229         1.227310
 H         0.956180         1.335395         2.914443
