19
Iteration:  3533charge 0 multiplicity 1
 O        -2.818680         3.731834         1.452917
 C        -1.874767         2.691095         1.665165
 C        -1.383972         1.937271         0.493551
 C        -0.567707         0.951572         1.322940
 O         0.024264         0.060457         0.427953
 C        -1.561242         0.506293         2.382736
 C        -2.031264         1.852426         2.859427
 C        -0.778766         2.647340         2.688965
 C         0.353991         1.868960         2.089877
 H        -2.265755         4.467158         1.125526
 H        -2.158751         1.421535        -0.081283
 H        -0.675999         2.608526        -0.075072
 H         0.214880        -0.787920         0.787028
 H        -2.267127        -0.178622         1.835762
 H        -1.073079        -0.078721         3.212035
 H        -2.723694         2.083923         3.680470
 H        -0.550457         3.623098         3.184552
 H         0.974724         2.645864         1.517421
 H         1.024606         1.456172         2.794473
