19
Iteration:   371charge 0 multiplicity 1
 O        -2.559485         4.082669         1.515022
 C        -1.971245         2.752293         1.648430
 C        -1.334045         1.949177         0.460374
 C        -0.515674         0.956629         1.187973
 O         0.258752        -0.081036         0.417363
 C        -1.659218         0.374698         2.232285
 C        -2.096930         1.716337         2.807836
 C        -0.956664         2.607619         2.834183
 C         0.184764         1.889265         2.331212
 H        -3.465988         3.888725         1.150897
 H        -2.125108         1.566602        -0.237692
 H        -0.794579         2.483133        -0.285601
 H         0.625181         0.447367        -0.275364
 H        -2.427464        -0.247606         1.662032
 H        -1.320263        -0.296217         3.042327
 H        -2.834452         1.652432         3.590319
 H        -0.678338         3.252388         3.649648
 H         1.027499         2.541873         1.877718
 H         0.677468         1.139088         2.993279
