19
Iteration:  2470charge 0 multiplicity 1
 O        -2.658407         3.980126         1.521686
 C        -2.022676         2.703214         1.674698
 C        -1.434326         1.900364         0.449185
 C        -0.523753         0.917463         1.263465
 O         0.119513        -0.102608         0.451681
 C        -1.576891         0.454661         2.342482
 C        -1.989947         1.806116         2.910193
 C        -0.843543         2.695290         2.633451
 C         0.331273         1.959403         2.098639
 H        -3.508716         3.861479         1.101717
 H        -2.234492         1.299673         0.014704
 H        -0.897940         2.416731        -0.333207
 H         0.471176        -0.764107         1.025717
 H        -2.479526        -0.203003         2.065418
 H        -1.068001        -0.184303         3.103638
 H        -2.711420         1.954444         3.755661
 H        -0.640053         3.675381         3.099129
 H         0.933655         2.552304         1.380606
 H         1.154165         1.519353         2.854916
