19
Iteration:   194
 O        -2.788710         3.808060         1.612011
 C        -1.799614         2.825978         1.637711
 C        -1.323318         2.072770         0.427583
 C        -0.496589         0.942080         1.217873
 O         0.206401        -0.069907         0.474401
 C        -1.661984         0.501238         2.251219
 C        -2.110042         1.834615         2.766937
 C        -0.793178         2.655350         2.769172
 C         0.295077         1.797204         2.177450
 H        -3.630496         3.323392         1.436599
 H        -2.212477         1.792817        -0.302368
 H        -0.547265         2.725954        -0.051621
 H        -0.392144        -0.838760         0.389994
 H        -2.423940        -0.113833         1.616848
 H        -1.333471        -0.160544         3.078032
 H        -2.967472         2.078091         3.442356
 H        -0.669330         3.520224         3.435506
 H         1.069635         2.591277         1.797471
 H         0.786662         1.125038         2.910673
