19
Iteration:  3718
 O        -2.817095         3.860516         1.494393
 C        -1.886840         2.798656         1.627724
 C        -1.461611         1.919188         0.382468
 C        -0.556029         0.973190         1.240932
 O         0.072029        -0.148017         0.598604
 C        -1.553252         0.412960         2.351739
 C        -1.948089         1.811513         2.864199
 C        -0.797027         2.735649         2.644895
 C         0.303586         1.885126         2.070957
 H        -2.425121         4.490297         2.097622
 H        -2.401156         1.486876        -0.062832
 H        -0.977788         2.559635        -0.342472
 H         1.037333        -0.024383         0.511244
 H        -2.458382        -0.157201         2.003160
 H        -0.942010        -0.200527         3.044919
 H        -2.721834         1.979978         3.654565
 H        -0.562127         3.637459         3.202596
 H         0.918580         2.516374         1.474041
 H         0.910285         1.269991         2.841031
