19
Iteration:  3582charge 0 multiplicity 1
 O        -2.746641         3.920063         1.482996
 C        -1.923197         2.774185         1.643281
 C        -1.502564         1.882207         0.472367
 C        -0.543659         1.014702         1.236729
 O         0.067140        -0.121460         0.566708
 C        -1.563562         0.481433         2.265426
 C        -2.014981         1.815497         2.757036
 C        -0.792017         2.755671         2.667780
 C         0.393477         1.835692         2.122074
 H        -3.443320         3.709957         2.143727
 H        -2.339279         1.181845         0.314209
 H        -1.102080         2.471521        -0.330992
 H         1.060054        -0.139372         0.818863
 H        -2.339565        -0.168765         1.897426
 H        -0.903129         0.017123         2.971574
 H        -2.653171         1.947702         3.660963
 H        -0.571717         3.417872         3.487199
 H         1.180185         2.291130         1.476487
 H         1.011972         1.187411         2.888762
