19
Iteration:  3172charge 0 multiplicity 1
 O        -2.676688         3.915357         1.340744
 C        -1.904606         2.785505         1.689959
 C        -1.401242         1.953740         0.473562
 C        -0.572040         0.892852         1.302344
 O         0.165679         0.014531         0.470141
 C        -1.582630         0.374203         2.324490
 C        -2.066640         1.760030         2.875033
 C        -0.798566         2.656430         2.817005
 C         0.329134         1.911891         2.172423
 H        -3.664306         3.861612         1.402290
 H        -2.234433         1.624608        -0.134052
 H        -0.625041         2.473898        -0.204498
 H        -0.439754        -0.431169        -0.058847
 H        -2.402515        -0.133823         1.780613
 H        -1.054734        -0.302529         3.076336
 H        -2.689293         2.037162         3.769620
 H        -0.700200         3.546700         3.461016
 H         0.696972         2.474196         1.356236
 H         0.935570         1.359787         2.829980
