19
Iteration:  1135
 O        -2.832476         3.927260         1.445949
 C        -1.891100         2.767935         1.656739
 C        -1.268329         2.017762         0.528239
 C        -0.498693         0.933888         1.315520
 O        -0.045462        -0.106841         0.448760
 C        -1.655927         0.435860         2.274062
 C        -2.030380         1.769893         2.884323
 C        -0.761368         2.670899         2.673607
 C         0.422198         1.906189         2.160134
 H        -3.715618         3.594982         1.238249
 H        -1.980124         1.414817        -0.186326
 H        -0.611664         2.655071        -0.116075
 H         0.975355        -0.069319         0.342419
 H        -2.424316        -0.143475         1.751378
 H        -1.107914        -0.227686         2.956428
 H        -2.687216         1.926022         3.745795
 H        -0.535848         3.397517         3.427577
 H         1.263192         2.394163         1.665674
 H         0.741167         1.306794         3.055716
