19
Iteration:   414charge 0 multiplicity 1
 O        -2.637144         3.929505         1.467706
 C        -1.836248         2.744693         1.678610
 C        -1.352164         2.038320         0.476053
 C        -0.552004         0.925571         1.267599
 O         0.118988         0.047356         0.437441
 C        -1.665192         0.387116         2.233007
 C        -2.142118         1.698757         2.781945
 C        -0.910321         2.637937         2.897919
 C         0.292112         1.812622         2.219254
 H        -2.896187         3.910812         0.506138
 H        -2.007224         1.525615        -0.284151
 H        -0.532674         2.555244        -0.018186
 H         0.931339         0.540830         0.195812
 H        -2.424441        -0.219794         1.642025
 H        -1.281986        -0.345843         2.949343
 H        -2.876215         1.760937         3.587674
 H        -0.937640         3.351179         3.714063
 H         1.083836         2.489538         1.733925
 H         0.894827         1.264409         2.952534
