19
Iteration:  1741
 O        -2.717139         3.823086         1.686794
 C        -1.885044         2.714795         1.569772
 C        -1.366540         1.984829         0.355046
 C        -0.572886         0.939200         1.202822
 O         0.192121        -0.162321         0.649967
 C        -1.657051         0.510239         2.314741
 C        -2.097642         1.868890         2.723078
 C        -0.856160         2.671462         2.718402
 C         0.258144         1.870494         2.104583
 H        -2.272733         4.687561         1.692326
 H        -2.204250         1.445938        -0.181046
 H        -0.936172         2.675888        -0.330442
 H         0.836889         0.213580         0.007329
 H        -2.495190        -0.095561         1.912384
 H        -1.081260        -0.092401         3.115994
 H        -2.912201         2.074233         3.400953
 H        -0.563763         3.604410         3.230783
 H         0.918001         2.342374         1.301416
 H         0.907224         1.242141         2.722149
