19
Iteration:  4205
 O        -2.877132         3.804039         1.486669
 C        -1.967177         2.752007         1.723228
 C        -1.539559         1.805051         0.534561
 C        -0.574669         0.871050         1.292839
 O         0.179759        -0.112606         0.594190
 C        -1.668728         0.493253         2.365712
 C        -1.901869         1.915144         2.952430
 C        -0.642305         2.792279         2.500206
 C         0.445978         1.919733         1.904502
 H        -2.550331         4.645736         1.865496
 H        -2.432331         1.377386         0.063779
 H        -0.990453         2.312294        -0.242753
 H        -0.247082        -0.203630        -0.227492
 H        -2.618040         0.150042         1.942721
 H        -1.409546        -0.111702         3.245838
 H        -2.407551         2.121235         3.977229
 H        -0.443808         3.751724         3.002361
 H         1.143315         2.316723         1.149859
 H         0.969602         1.387280         2.760338
