19
Iteration:  1182
 O        -2.576565         3.967270         1.469693
 C        -1.884721         2.781799         1.650897
 C        -1.530266         1.874815         0.410136
 C        -0.555666         0.944571         1.171097
 O         0.200115        -0.036969         0.528962
 C        -1.584050         0.422684         2.335181
 C        -2.071061         1.800406         2.891001
 C        -0.869514         2.639356         2.751371
 C         0.260404         1.835181         2.191684
 H        -3.572097         3.930749         1.575460
 H        -2.406973         1.323250        -0.098779
 H        -1.118439         2.484103        -0.409060
 H         0.377891         0.177084        -0.419552
 H        -2.296886        -0.246400         1.886521
 H        -0.979505        -0.104670         3.130921
 H        -2.549674         2.034355         3.835987
 H        -0.681159         3.499181         3.424076
 H         0.850690         2.584653         1.599826
 H         0.901912         1.248659         2.792886
