19
Iteration:   360charge 0 multiplicity 1
 O        -2.618018         4.051510         1.553586
 C        -1.932658         2.770813         1.670291
 C        -1.273718         2.049458         0.432976
 C        -0.493414         0.877680         1.180089
 O         0.253199        -0.089474         0.516228
 C        -1.674147         0.363712         2.187541
 C        -2.157617         1.723220         2.800814
 C        -0.943273         2.619428         2.809003
 C         0.227480         1.811270         2.207971
 H        -3.612741         3.930368         1.640167
 H        -2.031323         1.480028        -0.141326
 H        -0.665156         2.796210        -0.011817
 H         0.693294         0.198620        -0.345470
 H        -2.629638        -0.053844         1.740896
 H        -1.142475        -0.345509         2.832974
 H        -2.938731         1.903420         3.521635
 H        -0.853294         3.449776         3.492238
 H         0.924766         2.571802         1.678373
 H         0.745073         1.488134         3.123818
