19
Iteration:  1940charge 0 multiplicity 1
 O        -2.665168         3.839724         1.376319
 C        -1.811661         2.711410         1.641227
 C        -1.458043         1.926841         0.493563
 C        -0.559651         0.959790         1.301802
 O         0.000328         0.097937         0.395725
 C        -1.532739         0.407931         2.400754
 C        -2.040213         1.763197         2.873577
 C        -0.771536         2.731572         2.762133
 C         0.324251         1.921142         2.160124
 H        -3.490417         3.469667         0.957870
 H        -2.401163         1.319207         0.213291
 H        -0.783216         2.479407        -0.225390
 H         0.254694        -0.697286         0.780618
 H        -2.342701        -0.182509         1.841026
 H        -1.245588        -0.272524         3.239972
 H        -2.745365         2.009018         3.625538
 H        -0.780161         3.536835         3.453738
 H         1.084217         2.504481         1.589966
 H         0.962113         1.181311         2.676445
