19
Iteration:   495charge 0 multiplicity 1
 O        -2.664312         3.986624         1.436833
 C        -1.932040         2.792116         1.710753
 C        -1.296908         2.075555         0.560233
 C        -0.557512         0.900275         1.263284
 O         0.234290        -0.075626         0.496563
 C        -1.690859         0.381857         2.119213
 C        -2.157556         1.671469         2.725849
 C        -0.861324         2.662879         2.765290
 C         0.294612         1.808171         2.266987
 H        -3.337389         4.149171         2.134320
 H        -2.097522         1.751033        -0.043227
 H        -0.583050         2.578454        -0.072474
 H         0.732736         0.450209        -0.104699
 H        -2.419605        -0.073024         1.497243
 H        -1.263355        -0.317065         2.897139
 H        -2.936208         1.765335         3.454726
 H        -0.827085         3.262180         3.664830
 H         0.907185         2.531275         1.722244
 H         0.803787         1.217145         3.082032
