19
Iteration:   844charge 0 multiplicity 1
 O        -2.697797         3.837049         1.738756
 C        -1.863718         2.788696         1.644590
 C        -1.327289         2.071436         0.451916
 C        -0.583195         1.015060         1.217166
 O         0.190338        -0.199539         0.682499
 C        -1.713912         0.431863         2.067784
 C        -2.135975         1.733370         2.646750
 C        -0.866235         2.701739         2.726969
 C         0.328763         1.853743         2.179313
 H        -2.866197         4.330472         0.909917
 H        -2.064345         1.633248        -0.278149
 H        -0.576313         2.731679        -0.186317
 H         0.996579         0.384734         0.434116
 H        -2.520168         0.012883         1.515012
 H        -1.357897        -0.372286         2.804773
 H        -2.976099         1.901274         3.292866
 H        -0.716212         3.634586         3.277808
 H         0.923938         2.503726         1.456067
 H         0.888437         1.278004         2.947470
