19
Iteration:   311charge 0 multiplicity 1
 O        -2.834810         3.876598         1.563054
 C        -1.845198         2.838288         1.621646
 C        -1.244194         2.126979         0.417467
 C        -0.503611         0.920245         1.173446
 O         0.108170        -0.231862         0.489269
 C        -1.650941         0.521172         2.099566
 C        -2.067963         1.775121         2.821789
 C        -0.843333         2.722095         2.869893
 C         0.323088         1.799044         2.283697
 H        -3.629357         3.366322         1.706817
 H        -2.127545         1.779870        -0.113663
 H        -0.448769         2.731752        -0.112587
 H         0.981694         0.026090         0.271547
 H        -2.382112         0.210316         1.378591
 H        -1.423150        -0.328939         2.781566
 H        -2.951998         1.703888         3.526213
 H        -0.587008         3.629666         3.486568
 H         1.088055         2.406884         1.853816
 H         0.765791         1.122304         3.044322
