19
Iteration:  2899charge 0 multiplicity 1
 O        -2.563105         3.911838         1.485549
 C        -1.969063         2.732583         1.662756
 C        -1.453960         1.905866         0.500830
 C        -0.604449         0.944216         1.208429
 O         0.140442         0.066650         0.492725
 C        -1.643531         0.341917         2.324544
 C        -2.011095         1.794096         2.850972
 C        -0.775436         2.726507         2.671669
 C         0.283409         1.868920         2.140342
 H        -3.409272         3.674497         1.003480
 H        -2.316766         1.330549         0.028337
 H        -0.932823         2.657950        -0.285265
 H         0.677590        -0.516556         1.073421
 H        -2.413177        -0.230035         1.800452
 H        -1.115441        -0.225795         3.014763
 H        -2.705808         2.069517         3.623672
 H        -0.964471         3.563523         3.343644
 H         0.973664         2.358091         1.546879
 H         0.741944         1.302103         2.990818
