19
Iteration:  3961charge 0 multiplicity 1
 O        -2.832461         3.793451         1.502453
 C        -1.846633         2.855669         1.589706
 C        -1.414654         1.918241         0.460556
 C        -0.553521         0.959664         1.293343
 O         0.025209        -0.156670         0.534726
 C        -1.504608         0.444544         2.318910
 C        -1.944870         1.860283         2.748696
 C        -0.752744         2.744518         2.690997
 C         0.343681         2.000158         2.075208
 H        -3.270130         3.860883         2.382943
 H        -2.290394         1.394889         0.121567
 H        -0.795299         2.313061        -0.372497
 H        -0.237645        -1.019891         0.992179
 H        -2.325091        -0.115559         1.888063
 H        -1.229292        -0.213980         3.079769
 H        -2.786565         1.979826         3.505521
 H        -0.581124         3.486897         3.453142
 H         1.059020         2.672163         1.632198
 H         1.129385         1.461283         2.692522
