19
Iteration:   389charge 0 multiplicity 1
 O        -2.509350         3.973657         1.475290
 C        -1.859736         2.733084         1.672846
 C        -1.458485         1.987604         0.521705
 C        -0.532113         0.956572         1.284980
 O         0.120196         0.113566         0.468509
 C        -1.580576         0.328309         2.208522
 C        -2.207829         1.692042         2.719293
 C        -0.948511         2.630467         2.804121
 C         0.328014         1.777696         2.311746
 H        -3.024848         3.856441         0.643735
 H        -2.235351         1.346384         0.035604
 H        -0.903014         2.634150        -0.260591
 H         0.625758         0.655116        -0.101919
 H        -2.319390        -0.304697         1.663552
 H        -1.084729        -0.366631         2.885391
 H        -2.994994         1.773376         3.434899
 H        -1.006530         3.487969         3.458123
 H         1.154535         2.278639         1.775557
 H         0.806270         1.379594         3.202763
