19
Iteration:  2571
 O        -2.776034         3.809942         1.403830
 C        -1.814022         2.778203         1.660698
 C        -1.308164         1.962608         0.419171
 C        -0.619573         0.958243         1.239110
 O         0.077459         0.018289         0.543742
 C        -1.628591         0.496441         2.368327
 C        -2.033829         1.846003         2.821251
 C        -0.720893         2.690135         2.771695
 C         0.280892         1.826392         2.105377
 H        -3.643812         3.568351         1.857478
 H        -2.124616         1.544011        -0.235915
 H        -0.604266         2.481196        -0.097657
 H        -0.338446        -0.805447         0.254850
 H        -2.264015        -0.383541         2.013146
 H        -0.910041         0.071096         3.188547
 H        -2.705546         1.892415         3.633326
 H        -0.363141         3.462291         3.440416
 H         0.940453         2.514000         1.509755
 H         0.996870         1.117994         2.752726
