19
Iteration:  3204
 O        -2.691903         3.899522         1.544847
 C        -1.915892         2.710571         1.670559
 C        -1.526981         1.957402         0.403441
 C        -0.575467         0.930252         1.247569
 O         0.210782        -0.068560         0.590309
 C        -1.588145         0.452780         2.280804
 C        -2.039338         1.788641         2.842039
 C        -0.799571         2.770834         2.655324
 C         0.341096         1.838093         2.209115
 H        -3.428293         3.900084         0.934319
 H        -2.356785         1.495995        -0.179140
 H        -0.854096         2.554767        -0.320851
 H         0.132650        -0.004658        -0.414983
 H        -2.382326        -0.110457         1.829321
 H        -1.085460        -0.284606         2.890174
 H        -2.700892         2.010475         3.705628
 H        -0.712785         3.738275         3.177930
 H         1.228308         2.185471         1.645525
 H         0.790958         1.237903         2.986082
