19
Iteration:  2014charge 0 multiplicity 1
 O        -2.752846         3.843748         1.659851
 C        -1.860379         2.835921         1.592453
 C        -1.485234         1.930981         0.386870
 C        -0.543206         0.945058         1.281843
 O         0.239331        -0.125140         0.655503
 C        -1.660874         0.442155         2.317552
 C        -2.013882         1.824737         2.735973
 C        -0.786861         2.755791         2.674923
 C         0.336161         1.893702         2.032508
 H        -3.697295         3.614356         1.550251
 H        -2.350718         1.394699        -0.146144
 H        -0.857321         2.410365        -0.385588
 H        -0.103615        -0.144862        -0.320430
 H        -2.431389        -0.114929         1.811535
 H        -1.277967        -0.200198         3.134246
 H        -2.612751         2.041364         3.593226
 H        -0.595722         3.608889         3.345574
 H         1.123872         2.394139         1.430858
 H         0.875677         1.360671         2.796779
