19
Iteration:  2367
 O        -2.687404         3.962434         1.596670
 C        -1.974550         2.793370         1.619861
 C        -1.484477         1.841563         0.402111
 C        -0.545281         0.907108         1.240205
 O         0.060705        -0.163418         0.548756
 C        -1.501954         0.457414         2.384473
 C        -2.001875         1.822262         2.773146
 C        -0.800745         2.663757         2.697007
 C         0.359960         2.036290         2.037405
 H        -3.550729         3.810363         1.091087
 H        -2.318340         1.291031         0.080538
 H        -1.238121         2.399722        -0.548075
 H         1.019985        -0.252811         0.873535
 H        -2.362519        -0.235862         2.093902
 H        -0.825789        -0.007883         3.165393
 H        -2.811550         1.943083         3.529985
 H        -0.704096         3.404834         3.477139
 H         1.073595         2.682513         1.414798
 H         0.808207         1.323192         2.755415
