19
Iteration:  2955charge 0 multiplicity 1
 O        -2.645424         3.882610         1.455724
 C        -1.870909         2.737808         1.673589
 C        -1.413980         2.047327         0.422557
 C        -0.614330         0.987522         1.268979
 O         0.026349        -0.002037         0.497627
 C        -1.514306         0.399384         2.367603
 C        -2.066122         1.744539         2.840852
 C        -0.793765         2.697491         2.666629
 C         0.295261         1.841704         2.159067
 H        -3.552660         3.653556         1.232428
 H        -1.987957         1.687622        -0.475529
 H        -0.706350         2.759627        -0.193403
 H         0.613589        -0.690610         1.017256
 H        -2.176038        -0.266622         1.801920
 H        -0.976064        -0.193637         3.003979
 H        -2.832080         1.781352         3.610146
 H        -0.905381         3.546444         3.357895
 H         1.104801         2.281314         1.717974
 H         0.736047         1.290885         2.989674
