19
Iteration:  1220
 O        -2.705572         3.959399         1.734692
 C        -1.897412         2.744647         1.578944
 C        -1.362596         1.959846         0.359588
 C        -0.595654         0.930221         1.294229
 O         0.214558        -0.126769         0.640297
 C        -1.634930         0.394031         2.262605
 C        -2.068181         1.767080         2.770544
 C        -0.802159         2.714972         2.672523
 C         0.291473         1.962428         2.034892
 H        -3.255454         3.879325         0.945196
 H        -2.102827         1.503910        -0.179702
 H        -0.697002         2.586680        -0.239796
 H        -0.420991        -0.673362         0.251215
 H        -2.539594        -0.061495         1.732146
 H        -1.167971        -0.399318         2.816939
 H        -2.509090         1.968097         3.736143
 H        -0.762741         3.519765         3.371308
 H         0.760037         2.550807         1.261655
 H         1.068803         1.528628         2.750090
