19
Iteration:  1663
 O        -2.755963         3.808973         1.424019
 C        -1.840821         2.842840         1.624793
 C        -1.337360         2.004769         0.493794
 C        -0.620338         0.905905         1.337243
 O         0.070453         0.061590         0.435080
 C        -1.637200         0.348579         2.369786
 C        -2.003731         1.790754         2.790408
 C        -0.812114         2.713270         2.799556
 C         0.361110         1.798862         2.197070
 H        -2.398753         4.383092         0.740534
 H        -2.169411         1.481666        -0.082191
 H        -0.668544         2.467596        -0.180674
 H        -0.584936        -0.384150        -0.009604
 H        -2.339595        -0.391934         1.949295
 H        -1.155384        -0.243410         3.272190
 H        -2.797700         2.129868         3.461979
 H        -0.683939         3.458826         3.539015
 H         1.039868         2.478746         1.564786
 H         1.085816         1.233818         2.760530
