19
Iteration:  2922charge 0 multiplicity 1
 O        -2.626166         3.990138         1.434644
 C        -1.913369         2.819104         1.611636
 C        -1.476019         1.780123         0.509862
 C        -0.504092         0.890373         1.403731
 O         0.135884         0.044609         0.312598
 C        -1.629854         0.416658         2.369718
 C        -2.109840         1.802395         2.862446
 C        -0.790002         2.659392         2.817432
 C         0.321903         1.928211         2.167632
 H        -3.367680         3.564446         0.996892
 H        -2.319601         1.104725         0.034487
 H        -0.723511         2.280814        -0.278188
 H         0.713373        -0.679961         0.477393
 H        -2.377896         0.041344         1.667341
 H        -1.340765        -0.308557         3.022035
 H        -2.933979         1.907834         3.539293
 H        -0.698324         3.512320         3.535947
 H         0.768001         2.499969         1.448688
 H         1.021051         1.380586         2.800717
