19
Iteration:   838charge 0 multiplicity 1
 O        -2.697463         3.874348         1.731723
 C        -1.864116         2.834766         1.648256
 C        -1.376126         2.096209         0.386834
 C        -0.540623         0.940135         1.210731
 O         0.216652        -0.210996         0.657985
 C        -1.651782         0.442321         2.095165
 C        -2.131276         1.735020         2.644469
 C        -0.880289         2.694614         2.741889
 C         0.260255         1.836699         2.224577
 H        -2.856879         4.260905         0.822549
 H        -2.156140         1.633054        -0.196778
 H        -0.651926         2.576435        -0.188415
 H         1.050842         0.259220         0.339044
 H        -2.484522         0.013526         1.439814
 H        -1.551416        -0.326326         2.824606
 H        -2.861213         1.924043         3.469287
 H        -0.664675         3.484959         3.480414
 H         0.732939         2.552621         1.562764
 H         1.018596         1.442047         2.913320
