19
Iteration:   285
 O        -2.699188         3.931705         1.489129
 C        -1.927990         2.762511         1.616030
 C        -1.233373         2.082438         0.519711
 C        -0.574359         0.963720         1.283085
 O         0.062728         0.046045         0.426826
 C        -1.696150         0.351016         2.247451
 C        -2.080814         1.688956         2.841473
 C        -0.842048         2.702214         2.701269
 C         0.345634         1.747950         2.250236
 H        -3.430226         3.594842         0.984628
 H        -1.965641         1.605556        -0.211035
 H        -0.530306         2.741402        -0.044310
 H         0.998857         0.132701         0.500988
 H        -2.368104        -0.322244         1.682722
 H        -1.200306        -0.275309         3.009779
 H        -2.692838         1.917731         3.685587
 H        -0.788756         3.314875         3.571087
 H         1.134336         2.291769         1.685103
 H         0.805621         1.176545         3.076676
