19
Iteration:  3882
 O        -2.822520         3.869863         1.474778
 C        -1.839787         2.829232         1.633896
 C        -1.520962         1.756054         0.484924
 C        -0.534334         0.909395         1.330742
 O         0.061710         0.036743         0.356372
 C        -1.533909         0.411450         2.407356
 C        -2.002186         1.882743         2.806515
 C        -0.800793         2.721317         2.711209
 C         0.394872         1.830932         2.138463
 H        -2.334273         4.629714         1.059935
 H        -2.452148         1.234386         0.316680
 H        -1.008572         2.209250        -0.351284
 H         0.882402        -0.465515         0.769602
 H        -2.388279        -0.144387         2.039044
 H        -1.121266        -0.035207         3.219632
 H        -2.776259         2.140286         3.485379
 H        -0.738357         3.466720         3.528835
 H         1.021459         2.410052         1.551501
 H         0.802245         1.357580         3.026346
