19
Iteration:  1266charge 0 multiplicity 1
 O        -2.767525         3.880265         1.377037
 C        -1.909827         2.811048         1.649872
 C        -1.384533         1.991360         0.532211
 C        -0.540393         0.918839         1.301077
 O        -0.017366         0.045190         0.397049
 C        -1.589960         0.408583         2.293433
 C        -1.897355         1.747539         2.815996
 C        -0.760831         2.780893         2.708921
 C         0.375979         1.799535         2.237269
 H        -3.669003         3.606236         1.525810
 H        -2.197178         1.499142         0.012717
 H        -0.713825         2.485056        -0.157425
 H         0.298601        -0.809905         0.720519
 H        -2.409562        -0.125692         1.773968
 H        -1.360426        -0.206397         3.172508
 H        -2.484979         1.794542         3.703129
 H        -0.723100         3.384314         3.645429
 H         1.250625         2.201746         1.661822
 H         0.726798         1.284362         3.187048
