19
Iteration:   833charge 0 multiplicity 1
 O        -2.725195         3.940040         1.710591
 C        -1.849322         2.821835         1.641519
 C        -1.390014         2.093844         0.356121
 C        -0.501419         0.864530         1.237655
 O         0.227480        -0.183528         0.635493
 C        -1.654398         0.430204         2.105800
 C        -2.122250         1.762449         2.679694
 C        -0.873367         2.659250         2.764914
 C         0.214893         1.852312         2.221910
 H        -2.839649         4.215651         0.818308
 H        -2.268575         1.641806        -0.180340
 H        -0.644186         2.648100        -0.354641
 H         1.064003         0.049580         0.257280
 H        -2.371561         0.041267         1.417583
 H        -1.472761        -0.338710         2.918202
 H        -2.825934         1.848471         3.473433
 H        -0.746233         3.320794         3.616419
 H         0.853011         2.591257         1.646030
 H         0.999531         1.459604         2.883155
