19
Iteration:  4120charge 0 multiplicity 1
 O        -2.783066         3.809834         1.424898
 C        -1.884495         2.739539         1.679352
 C        -1.403262         1.829312         0.446307
 C        -0.601071         0.945465         1.303295
 O        -0.099972        -0.084793         0.450541
 C        -1.540111         0.490661         2.342868
 C        -1.817471         1.871476         2.972449
 C        -0.729033         2.840889         2.643746
 C         0.384131         1.941420         2.075858
 H        -3.696084         3.453682         1.597049
 H        -2.320642         1.304347         0.125240
 H        -0.911923         2.270649        -0.398849
 H         0.655327        -0.557707         0.942576
 H        -2.492681         0.114798         1.994247
 H        -1.260798        -0.234336         3.033704
 H        -2.573364         2.158032         3.788184
 H        -0.584277         3.591438         3.451293
 H         0.990926         2.332070         1.240099
 H         1.091816         1.466962         2.755744
