19
Iteration:  4202
 O        -2.853031         3.796946         1.502263
 C        -1.973198         2.783631         1.716742
 C        -1.559149         1.787376         0.552706
 C        -0.584058         0.885380         1.294472
 O         0.196101        -0.111005         0.597413
 C        -1.661300         0.496766         2.362372
 C        -1.911061         1.890483         2.929985
 C        -0.686806         2.806616         2.499227
 C         0.470975         1.904639         1.910334
 H        -2.470850         4.630215         1.766384
 H        -2.487010         1.337589         0.172222
 H        -1.011957         2.412658        -0.221432
 H        -0.284874        -0.343437        -0.297236
 H        -2.640916         0.262512         1.899371
 H        -1.359830        -0.124775         3.282366
 H        -2.351862         2.129836         3.877655
 H        -0.465714         3.752541         2.994261
 H         1.105372         2.307155         1.142902
 H         1.009954         1.394019         2.713247
