19
Iteration:   813charge 0 multiplicity 1
 O        -2.732404         4.082151         1.556878
 C        -1.937341         2.831867         1.662473
 C        -1.358396         2.019575         0.470372
 C        -0.543084         1.005658         1.226352
 O         0.177657        -0.089537         0.558155
 C        -1.646660         0.329743         2.186030
 C        -2.132194         1.644593         2.711926
 C        -0.886204         2.594634         2.803836
 C         0.384363         1.791789         2.218247
 H        -2.883750         4.262020         0.603209
 H        -2.085633         1.406045        -0.088757
 H        -0.707025         2.642769        -0.215697
 H         0.911604         0.411145         0.246932
 H        -2.417251        -0.265251         1.729035
 H        -1.234143        -0.300065         2.968217
 H        -2.940543         1.859650         3.395764
 H        -0.714463         3.375365         3.551142
 H         1.155559         2.358941         1.765120
 H         0.896978         1.155885         2.971346
