19
Iteration:   304charge 0 multiplicity 1
 O        -2.818423         3.895067         1.528169
 C        -1.892234         2.804582         1.680892
 C        -1.263489         2.111529         0.499890
 C        -0.517850         0.880278         1.220576
 O         0.127481        -0.207876         0.417175
 C        -1.615319         0.489990         2.139215
 C        -2.066696         1.789891         2.782359
 C        -0.805631         2.725218         2.840530
 C         0.290479         1.805789         2.267985
 H        -3.698174         3.542334         1.460305
 H        -1.953853         1.972136        -0.385028
 H        -0.594648         2.777081        -0.025300
 H         1.100348        -0.100041         0.267269
 H        -2.580163         0.218893         1.554765
 H        -1.492387        -0.357732         2.797864
 H        -2.818268         1.748616         3.536422
 H        -0.573006         3.590248         3.441272
 H         1.214710         2.446930         1.967313
 H         0.574211         1.275777         3.191216
