19
Iteration:  1441charge 0 multiplicity 1
 O        -2.725761         3.878883         1.522689
 C        -1.822816         2.837238         1.664441
 C        -1.428397         1.938130         0.444862
 C        -0.629593         0.883233         1.308234
 O         0.198363         0.016100         0.510699
 C        -1.701067         0.391288         2.337397
 C        -2.076760         1.750347         2.769559
 C        -0.792773         2.701767         2.693358
 C         0.333854         1.884577         2.114199
 H        -2.194707         4.672704         1.360461
 H        -2.229782         1.515227        -0.093476
 H        -0.796634         2.289217        -0.371195
 H        -0.169156        -0.814187         0.395883
 H        -2.549209        -0.150517         1.857244
 H        -1.134721        -0.209893         3.084401
 H        -2.723244         1.841090         3.669253
 H        -0.582512         3.409766         3.470361
 H         0.886586         2.445512         1.369158
 H         1.017161         1.446788         2.850865
