19
Iteration:   553
 O        -2.703297         3.934562         1.460178
 C        -1.877516         2.789928         1.691771
 C        -1.261080         2.050788         0.496515
 C        -0.517329         0.926331         1.293263
 O         0.155841        -0.009721         0.390964
 C        -1.670429         0.332123         2.242290
 C        -2.219260         1.689197         2.673882
 C        -0.885773         2.621215         2.835365
 C         0.301978         1.819886         2.307973
 H        -2.534201         4.594448         2.170595
 H        -2.128500         1.647431        -0.113113
 H        -0.492629         2.527640        -0.198707
 H         0.841705         0.435049        -0.224762
 H        -2.336549        -0.137781         1.448175
 H        -1.420053        -0.481733         2.927516
 H        -2.962203         2.008266         3.439251
 H        -0.959122         3.397746         3.614530
 H         1.002248         2.584834         1.922234
 H         0.972787         1.268049         3.009529
