19
Iteration:  3374
 O        -2.781066         3.898477         1.575330
 C        -1.860496         2.810066         1.636299
 C        -1.414721         1.967216         0.457449
 C        -0.515129         0.950751         1.307374
 O         0.128598        -0.138653         0.557653
 C        -1.618622         0.414483         2.311409
 C        -2.035692         1.781829         2.814661
 C        -0.857510         2.678913         2.742716
 C         0.366207         1.905330         2.036649
 H        -2.921599         4.028949         0.620174
 H        -2.305198         1.451146         0.024089
 H        -0.714665         2.428857        -0.256253
 H         0.720679         0.174716        -0.106048
 H        -2.511465         0.012885         1.707262
 H        -1.252229        -0.297823         3.141183
 H        -2.887738         1.951335         3.507109
 H        -0.802857         3.351845         3.631551
 H         0.852365         2.544934         1.389951
 H         1.167963         1.490439         2.656791
