19
Iteration:   346
 O        -2.650192         3.930916         1.592861
 C        -1.898197         2.769588         1.656427
 C        -1.305840         2.114907         0.446517
 C        -0.579896         0.979188         1.298424
 O         0.192484        -0.092925         0.638495
 C        -1.691712         0.382685         2.123273
 C        -2.156746         1.706539         2.686276
 C        -0.866190         2.650032         2.730633
 C         0.330468         1.828202         2.194803
 H        -3.516013         3.697554         1.928587
 H        -1.997661         1.912023        -0.394508
 H        -0.487163         2.694057        -0.057843
 H         0.485118         0.367995        -0.112651
 H        -2.291737        -0.227753         1.395852
 H        -1.423879        -0.284264         2.938610
 H        -2.970456         1.720178         3.396952
 H        -0.769978         3.452051         3.452473
 H         1.035995         2.372903         1.513866
 H         0.955860         1.114643         2.721139
