19
Iteration:  3902charge 0 multiplicity 1
 O        -2.715512         3.794282         1.434847
 C        -1.881925         2.767006         1.681989
 C        -1.489366         1.848946         0.499763
 C        -0.604321         0.889984         1.320811
 O         0.113042         0.069144         0.385442
 C        -1.604195         0.376050         2.384733
 C        -2.025491         1.791337         2.867882
 C        -0.759272         2.845438         2.608714
 C         0.359994         1.921064         2.163099
 H        -2.389530         4.610587         1.792941
 H        -2.373866         1.177222         0.247312
 H        -1.135934         2.189768        -0.481059
 H         0.439985        -0.821148         0.766967
 H        -2.503177        -0.095857         1.933290
 H        -1.226063        -0.144473         3.261278
 H        -2.788507         1.915872         3.632850
 H        -0.511314         3.731911         3.235966
 H         0.986549         2.399802         1.422204
 H         0.871066         1.348491         2.840844
