19
Iteration:  4420
 O        -2.788212         3.796194         1.529030
 C        -1.924179         2.661824         1.622513
 C        -1.598302         1.781527         0.466901
 C        -0.650319         0.869058         1.289144
 O         0.065989        -0.028887         0.533099
 C        -1.518927         0.574363         2.444095
 C        -1.828937         1.934617         2.949527
 C        -0.691705         2.758942         2.457001
 C         0.363204         1.887386         1.969189
 H        -2.931313         4.295456         2.370819
 H        -2.522278         1.297406         0.082286
 H        -1.119387         2.409846        -0.355602
 H         0.734950        -0.478766         0.996664
 H        -2.405372         0.271659         1.891236
 H        -1.412060        -0.241154         3.190920
 H        -2.550005         2.214837         3.721025
 H        -0.359774         3.738594         2.773509
 H         0.980361         2.524854         1.245164
 H         1.003081         1.472824         2.813641
