19
Iteration:  3659
 O        -2.785155         3.738655         1.478150
 C        -1.805018         2.759286         1.678545
 C        -1.475755         1.927019         0.457193
 C        -0.545055         0.981289         1.209810
 O        -0.004022        -0.128792         0.589644
 C        -1.505650         0.527240         2.271725
 C        -1.998788         1.810550         2.784189
 C        -0.794466         2.766845         2.819871
 C         0.368564         1.943983         2.164331
 H        -2.492590         4.238575         0.670840
 H        -2.482666         1.403245         0.164361
 H        -1.061918         2.504771        -0.450854
 H         0.026732        -0.011752        -0.324477
 H        -2.342027        -0.044115         1.915272
 H        -1.056840         0.062077         3.127666
 H        -2.769237         1.823905         3.573414
 H        -0.540052         3.501174         3.609920
 H         1.091919         2.493016         1.447293
 H         0.999525         1.072707         2.674479
