19
Iteration:  2692charge 0 multiplicity 1
 O        -2.674928         3.758227         1.441997
 C        -1.884550         2.688118         1.674729
 C        -1.386602         1.980936         0.474943
 C        -0.604474         0.899534         1.315534
 O         0.034445        -0.004855         0.380344
 C        -1.721115         0.441468         2.285728
 C        -1.989290         1.832172         2.875857
 C        -0.805767         2.816178         2.630953
 C         0.491852         1.894537         2.271036
 H        -3.636419         3.717292         1.505114
 H        -2.164591         1.412051        -0.042990
 H        -0.875905         2.465692        -0.227901
 H         0.718602        -0.442366         0.811779
 H        -2.627326         0.198285         1.712669
 H        -1.393542        -0.176513         3.095110
 H        -2.638896         2.224431         3.706045
 H        -0.814745         3.688624         3.308778
 H         1.212444         2.431529         1.688369
 H         0.946197         1.192146         3.041739
