19
Iteration:  3911charge 0 multiplicity 1
 O        -2.722675         3.818853         1.412687
 C        -1.906009         2.695057         1.681396
 C        -1.475057         1.839659         0.441324
 C        -0.576111         0.946103         1.290965
 O         0.113896         0.064142         0.439375
 C        -1.607366         0.442764         2.381732
 C        -1.995571         1.803676         2.935920
 C        -0.778597         2.791457         2.633642
 C         0.340145         1.877145         2.070941
 H        -2.416868         4.511930         1.987653
 H        -2.409465         1.305082         0.057985
 H        -0.893872         2.468123        -0.248313
 H         0.216219        -0.827305         0.916341
 H        -2.526268        -0.116294         2.027146
 H        -1.070978        -0.330729         3.120667
 H        -2.733404         1.978391         3.760572
 H        -0.758080         3.667257         3.310088
 H         1.096482         2.395652         1.360889
 H         0.893977         1.473313         2.940443
