19
Iteration:  2033
 O        -2.760345         3.986890         1.510269
 C        -1.940795         2.699389         1.701058
 C        -1.357645         1.862022         0.501705
 C        -0.579165         0.873009         1.297293
 O         0.189640        -0.084306         0.489018
 C        -1.619441         0.417757         2.345857
 C        -1.987276         1.825023         2.907099
 C        -0.801651         2.741496         2.635595
 C         0.334652         1.922443         2.109127
 H        -3.510643         3.627309         1.028079
 H        -2.131346         1.408277         0.048013
 H        -0.809777         2.467205        -0.109391
 H        -0.100994        -0.028855        -0.514059
 H        -2.428217        -0.040859         1.770739
 H        -1.209646        -0.312905         3.054694
 H        -2.857339         1.969164         3.508452
 H        -0.710255         3.606256         3.271890
 H         0.834360         2.516910         1.340264
 H         1.154247         1.654037         2.761265
