19
Iteration:  3552charge 0 multiplicity 1
 O        -2.798088         3.787900         1.403288
 C        -1.928469         2.709794         1.686843
 C        -1.338866         2.004065         0.477013
 C        -0.584867         0.935284         1.265298
 O         0.058524        -0.102176         0.432940
 C        -1.617458         0.412716         2.404035
 C        -1.982979         1.756383         2.885334
 C        -0.805706         2.825125         2.710130
 C         0.360759         1.964790         2.038617
 H        -2.566444         4.521898         2.021320
 H        -2.074215         1.709176        -0.333193
 H        -0.662089         2.666808        -0.025657
 H         0.569604        -0.568687         1.036931
 H        -2.557847        -0.197453         2.089247
 H        -1.133062        -0.302433         3.109791
 H        -2.720234         1.917648         3.719934
 H        -0.532576         3.548402         3.510582
 H         0.913996         2.389103         1.270248
 H         1.033317         1.442570         2.712055
