19
Iteration:   502
 O        -2.642413         4.010698         1.344810
 C        -1.950379         2.841033         1.701334
 C        -1.334851         2.103245         0.559095
 C        -0.551354         0.916937         1.309705
 O         0.199088        -0.005621         0.494550
 C        -1.723932         0.308576         2.114010
 C        -2.122662         1.641919         2.777094
 C        -0.864382         2.619232         2.801324
 C         0.315149         1.763158         2.259597
 H        -3.228179         4.089427         2.152228
 H        -2.047772         1.521069        -0.104970
 H        -0.694575         2.778065        -0.016273
 H         0.782431         0.455568        -0.167750
 H        -2.372570        -0.384759         1.522747
 H        -1.149923        -0.272179         2.834756
 H        -2.846083         1.574631         3.616117
 H        -0.715418         3.384098         3.594106
 H         1.065595         2.468290         1.817358
 H         0.764449         1.377571         3.159141
