19
Iteration:  2515
 O        -2.690590         3.914781         1.537319
 C        -1.860855         2.769335         1.577233
 C        -1.485639         1.912493         0.419468
 C        -0.588424         0.955429         1.240702
 O         0.109386        -0.094479         0.621984
 C        -1.589801         0.439617         2.353989
 C        -1.947852         1.818641         2.846613
 C        -0.824085         2.732066         2.701157
 C         0.326496         1.848483         2.078009
 H        -3.564187         3.601734         1.273100
 H        -2.314545         1.302301        -0.023116
 H        -1.088988         2.535680        -0.351005
 H         0.581058         0.235005        -0.113418
 H        -2.422366        -0.211057         1.892931
 H        -1.086868        -0.310250         3.055836
 H        -2.815157         2.037823         3.502818
 H        -0.719722         3.559857         3.388537
 H         1.001339         2.494048         1.468209
 H         1.050965         1.319723         2.869261
