19
Iteration:  2678charge 0 multiplicity 1
 O        -2.702008         3.927452         1.397294
 C        -1.951143         2.719665         1.659158
 C        -1.384136         1.889263         0.512740
 C        -0.519647         0.956557         1.304926
 O        -0.026639        -0.000778         0.424874
 C        -1.612107         0.403673         2.278741
 C        -1.985451         1.788594         2.893539
 C        -0.733942         2.741182         2.684997
 C         0.381444         1.903524         2.228116
 H        -3.614374         3.537715         1.306266
 H        -2.121025         1.383132        -0.142319
 H        -0.753516         2.656235        -0.119228
 H         0.511364        -0.699866         0.920368
 H        -2.428120        -0.094234         1.695753
 H        -1.245963        -0.410745         2.873280
 H        -2.676476         1.818311         3.722611
 H        -0.627426         3.683406         3.266876
 H         1.070584         2.336794         1.572222
 H         0.878640         1.542734         3.107209
