19
Iteration:  3590
 O        -2.691635         3.884971         1.536566
 C        -1.902133         2.747266         1.658431
 C        -1.531944         1.847481         0.431709
 C        -0.564659         0.983519         1.236982
 O         0.093620        -0.083147         0.562670
 C        -1.591490         0.511681         2.353724
 C        -2.096605         1.815603         2.751258
 C        -0.691971         2.781819         2.656486
 C         0.390677         1.828914         2.086515
 H        -3.624195         3.592784         1.779572
 H        -2.355526         1.265635        -0.014229
 H        -1.148296         2.512556        -0.452903
 H         1.087880         0.056171         0.596651
 H        -2.263059        -0.118547         1.794800
 H        -1.117090        -0.002346         3.243539
 H        -2.764892         1.885759         3.574815
 H        -0.719163         3.520822         3.434580
 H         1.226131         2.514888         1.600450
 H         0.780671         1.151198         2.860606
