19
Iteration:  4411
 O        -2.827103         3.757908         1.480188
 C        -1.925029         2.748593         1.654483
 C        -1.582367         1.800894         0.487314
 C        -0.579875         0.913578         1.300621
 O         0.017604        -0.088005         0.464403
 C        -1.579772         0.555056         2.462721
 C        -1.797095         1.943121         2.900734
 C        -0.692573         2.876623         2.515826
 C         0.410205         1.846916         1.987909
 H        -3.219658         4.044182         2.341851
 H        -2.328874         1.085375         0.120071
 H        -1.159689         2.332632        -0.367289
 H         0.705065        -0.504507         0.936535
 H        -2.560892         0.283344         2.103906
 H        -1.186150        -0.261704         3.167918
 H        -2.425997         2.010992         3.744676
 H        -0.331591         3.752035         3.055620
 H         1.099168         2.339998         1.349051
 H         0.988892         1.382759         2.817542
