19
Iteration:  1027charge 0 multiplicity 1
 O        -2.684629         3.930428         1.376470
 C        -1.852452         2.825977         1.632537
 C        -1.326214         2.022442         0.516833
 C        -0.543246         0.924384         1.300856
 O         0.003951         0.017821         0.493469
 C        -1.538237         0.462838         2.297470
 C        -2.058899         1.724490         2.815663
 C        -0.838752         2.570007         2.789565
 C         0.297237         1.803267         2.230602
 H        -3.390400         3.532553         0.890015
 H        -1.993815         1.295949        -0.013872
 H        -0.692530         2.490174        -0.192535
 H         0.107911         0.281678        -0.402516
 H        -2.373963        -0.130504         1.903900
 H        -1.083345        -0.209026         3.064561
 H        -2.809828         1.823940         3.653759
 H        -0.724726         3.260485         3.633448
 H         0.895144         2.611741         1.781187
 H         0.960123         1.276869         2.872874
