19
Iteration:  1814charge 0 multiplicity 1
 O        -2.712220         3.751770         1.320913
 C        -1.816969         2.715180         1.667464
 C        -1.367820         1.979326         0.495092
 C        -0.576561         0.928565         1.294389
 O         0.096105         0.117632         0.357318
 C        -1.656556         0.420437         2.431452
 C        -1.996986         1.857246         2.844852
 C        -0.781283         2.727707         2.735374
 C         0.273579         1.789990         2.207691
 H        -2.957764         4.231769         2.116519
 H        -2.224207         1.500350         0.012368
 H        -0.757745         2.426599        -0.302208
 H        -0.131668        -0.753993         0.432668
 H        -2.531280        -0.102499         2.141525
 H        -1.125336        -0.088328         3.208080
 H        -2.834194         1.886205         3.530943
 H        -0.528611         3.547890         3.392753
 H         0.820597         2.479252         1.611365
 H         0.879122         1.344752         2.984209
