19
Iteration:   567charge 0 multiplicity 1
 O        -2.763576         3.959984         1.562300
 C        -1.914645         2.816950         1.603111
 C        -1.251738         2.056650         0.472064
 C        -0.524858         0.936000         1.307338
 O         0.141330        -0.042407         0.564806
 C        -1.668997         0.369802         2.077686
 C        -2.087426         1.685563         2.699900
 C        -0.928934         2.589834         2.769243
 C         0.326129         1.821880         2.243880
 H        -2.345286         4.564505         2.173862
 H        -1.909382         1.570622        -0.366914
 H        -0.509368         2.813978         0.006201
 H         0.709639         0.455228         0.014544
 H        -2.507960        -0.152765         1.524122
 H        -1.276414        -0.193150         2.939831
 H        -2.964687         1.618328         3.325840
 H        -0.716746         3.135784         3.698700
 H         1.076364         2.343517         1.610501
 H         0.673828         1.240648         3.071262
