19
Iteration:  1980charge 0 multiplicity 1
 O        -2.782626         3.911841         1.559298
 C        -1.955773         2.769363         1.665371
 C        -1.427322         2.022248         0.364365
 C        -0.569229         0.979693         1.251509
 O         0.257921        -0.159707         0.620091
 C        -1.603180         0.429224         2.298805
 C        -1.970896         1.804244         2.814333
 C        -0.795027         2.733376         2.662274
 C         0.322379         1.875787         2.060793
 H        -3.564309         3.621602         2.024785
 H        -2.245646         1.589271        -0.238719
 H        -0.777188         2.632215        -0.220058
 H        -0.526094        -0.793987         0.331498
 H        -2.314875        -0.106317         1.748096
 H        -1.102883        -0.182168         3.074293
 H        -2.585459         1.853087         3.693231
 H        -0.648275         3.714949         3.122018
 H         1.072449         2.406639         1.465863
 H         0.761221         1.268755         2.831633
