19
Iteration:  3212
 O        -2.702052         3.898796         1.627756
 C        -1.888433         2.732139         1.589604
 C        -1.477051         1.915029         0.371862
 C        -0.556467         0.942531         1.257313
 O         0.208230        -0.106211         0.590601
 C        -1.603960         0.413620         2.287904
 C        -2.028308         1.874182         2.794721
 C        -0.791188         2.739392         2.723972
 C         0.262768         1.852088         2.162342
 H        -3.270610         3.618396         0.904842
 H        -2.329903         1.316804        -0.112555
 H        -0.997188         2.605694        -0.320112
 H         0.107700         0.212705        -0.387892
 H        -2.399885        -0.120997         1.785092
 H        -1.126744        -0.184132         3.014934
 H        -2.739393         2.085000         3.617391
 H        -0.585112         3.670462         3.242756
 H         1.069375         2.553011         1.657952
 H         0.846563         1.332274         2.974320
