19
Iteration:  2606charge 0 multiplicity 1
 O        -2.692398         4.023479         1.541738
 C        -1.961517         2.814993         1.659869
 C        -1.490329         1.850947         0.440939
 C        -0.513632         0.888975         1.274243
 O         0.180991        -0.044495         0.542471
 C        -1.668871         0.384731         2.234571
 C        -1.961768         1.743453         2.855308
 C        -0.762418         2.776044         2.615531
 C         0.323288         1.915889         2.153547
 H        -3.644928         3.691763         1.423603
 H        -2.200279         1.191020        -0.174965
 H        -0.910326         2.445511        -0.304911
 H        -0.053928        -0.954504         0.733370
 H        -2.518023        -0.093184         1.656705
 H        -1.295871        -0.400012         3.028231
 H        -2.559496         1.878172         3.772518
 H        -0.514630         3.665044         3.246778
 H         1.139156         2.469436         1.531115
 H         0.847540         1.356713         3.042104
