19
Iteration:  3407
 O        -2.796626         3.782253         1.482219
 C        -1.898659         2.709737         1.615162
 C        -1.426508         1.946807         0.462790
 C        -0.551319         0.971673         1.310545
 O         0.071595         0.044074         0.443397
 C        -1.605343         0.418742         2.402522
 C        -1.984427         1.841573         2.895374
 C        -0.803501         2.750247         2.609631
 C         0.344308         1.775759         2.183048
 H        -2.290714         4.478532         1.047141
 H        -2.265954         1.520135        -0.154543
 H        -0.777036         2.527039        -0.242890
 H         1.066703         0.265074         0.292641
 H        -2.572535        -0.111841         2.048253
 H        -1.044993        -0.298446         3.115354
 H        -2.844681         2.015175         3.537139
 H        -0.707382         3.580926         3.331341
 H         1.131464         2.144452         1.611459
 H         0.676932         1.081339         2.965810
