19
Iteration:   628
 O        -2.770410         3.934056         1.554602
 C        -1.873093         2.833385         1.689941
 C        -1.218531         2.022265         0.491182
 C        -0.531644         0.961534         1.353189
 O         0.120175         0.031529         0.473609
 C        -1.709461         0.354718         2.087854
 C        -2.175186         1.693697         2.724992
 C        -0.863220         2.605932         2.785118
 C         0.365579         1.806776         2.244235
 H        -2.857719         4.532001         0.799511
 H        -1.889895         1.607655        -0.209776
 H        -0.441256         2.532121        -0.029339
 H         0.986995         0.331922         0.371830
 H        -2.465685        -0.184494         1.477474
 H        -1.441100        -0.413980         2.833333
 H        -3.056513         1.799877         3.396817
 H        -0.659663         3.180974         3.695367
 H         1.284693         2.232281         1.822625
 H         0.679218         0.996883         2.987462
