19
Iteration:   898charge 0 multiplicity 1
 O        -2.735317         3.809578         1.333576
 C        -1.822304         2.799585         1.756235
 C        -1.325263         2.013797         0.486506
 C        -0.492450         0.991042         1.253372
 O         0.053995        -0.035881         0.402922
 C        -1.611113         0.338117         2.289479
 C        -2.162712         1.762375         2.756993
 C        -0.839931         2.741533         2.850582
 C         0.294006         1.777717         2.290128
 H        -2.480728         4.688711         1.754294
 H        -2.227915         1.670462        -0.079638
 H        -0.754741         2.616551        -0.295178
 H         0.781912         0.392856        -0.221876
 H        -2.326842        -0.130963         1.623356
 H        -1.224137        -0.179426         3.239718
 H        -3.041436         1.975868         3.388108
 H        -0.517967         3.282548         3.747445
 H         1.152717         2.438805         1.839570
 H         0.726064         1.167655         3.124314
