19
Iteration:  4110charge 0 multiplicity 1
 O        -2.792904         3.715890         1.402248
 C        -1.865130         2.766521         1.645729
 C        -1.505891         1.912300         0.477399
 C        -0.551338         0.935878         1.282481
 O        -0.036380        -0.061032         0.493713
 C        -1.636135         0.530483         2.403687
 C        -1.822087         1.911971         2.893454
 C        -0.663954         2.807246         2.702079
 C         0.350094         1.850634         2.033940
 H        -3.568684         3.564019         2.015267
 H        -2.357885         1.300465         0.092500
 H        -1.048369         2.376246        -0.401256
 H         0.799222        -0.417329         0.821240
 H        -2.483756         0.155521         1.814262
 H        -1.129675        -0.192613         2.997811
 H        -2.606509         2.098013         3.718129
 H        -0.183105         3.645479         3.215149
 H         1.026959         2.421847         1.368017
 H         0.825723         1.391792         2.861574
