19
Iteration:  3329charge 0 multiplicity 1
 O        -2.697948         3.929331         1.547803
 C        -1.931249         2.712221         1.613623
 C        -1.349841         1.994606         0.406544
 C        -0.550755         0.929493         1.223402
 O         0.100722        -0.144634         0.571392
 C        -1.579465         0.399247         2.312149
 C        -1.998727         1.809013         2.853384
 C        -0.834590         2.693026         2.687283
 C         0.281064         1.929950         2.131257
 H        -3.640504         3.718521         1.582109
 H        -2.185658         1.484926        -0.063494
 H        -0.893697         2.763038        -0.218490
 H         0.729964         0.233267        -0.054039
 H        -2.490540        -0.111826         1.892902
 H        -0.965329        -0.225113         3.045601
 H        -2.893125         1.989562         3.459778
 H        -0.664838         3.589655         3.275804
 H         1.013948         2.477474         1.645024
 H         0.787047         1.311913         2.909821
