19
Iteration:  4677charge 0 multiplicity 1
 O        -2.832567         3.735157         1.490795
 C        -1.849263         2.753724         1.630440
 C        -1.487367         1.969806         0.369681
 C        -0.676601         0.953969         1.218999
 O        -0.093138        -0.177498         0.579940
 C        -1.330745         0.456057         2.476259
 C        -1.944674         1.866096         2.855780
 C        -0.703433         2.761270         2.615067
 C         0.354867         1.999218         1.968441
 H        -2.728429         4.379309         2.180797
 H        -2.462560         1.705808         0.017603
 H        -0.898357         2.507350        -0.347068
 H         0.395948        -0.571868         1.227772
 H        -1.974924        -0.425519         2.218283
 H        -0.597721         0.151482         3.194847
 H        -2.730677         2.059316         3.546121
 H        -0.838017         3.650473         3.238255
 H         1.080872         2.605815         1.394186
 H         0.876433         1.286657         2.681373
