19
Iteration:  1501charge 0 multiplicity 1
 O        -2.769211         3.830886         1.585813
 C        -1.870196         2.775214         1.652702
 C        -1.426466         1.999391         0.446132
 C        -0.579463         0.950948         1.301051
 O         0.157553        -0.115328         0.615669
 C        -1.623436         0.425530         2.245004
 C        -2.026252         1.789683         2.746329
 C        -0.757911         2.726533         2.684723
 C         0.321655         1.905453         2.110315
 H        -2.325545         4.652672         1.260936
 H        -2.270760         1.402794        -0.054822
 H        -0.728378         2.637843        -0.130889
 H        -0.491057        -0.594182         0.051186
 H        -2.530987         0.037045         1.742294
 H        -1.301808        -0.437732         2.866853
 H        -2.813376         1.887380         3.500442
 H        -0.535009         3.644051         3.269713
 H         0.983784         2.567615         1.426028
 H         1.021678         1.277875         2.730263
