19
Iteration:  4779
 O        -2.879977         3.808061         1.656163
 C        -1.896955         2.787409         1.655074
 C        -1.375971         1.921081         0.512082
 C        -0.462747         0.903233         1.337392
 O        -0.147037        -0.229182         0.518849
 C        -1.418186         0.411501         2.386192
 C        -1.932233         1.841394         2.797752
 C        -0.808256         2.870766         2.552490
 C         0.377334         2.048258         1.939374
 H        -2.800349         4.254822         0.762198
 H        -2.235564         1.558938        -0.033877
 H        -0.658524         2.338428        -0.195677
 H         0.618454        -0.859292         0.844110
 H        -2.247002        -0.241881         1.952497
 H        -0.955876        -0.247126         3.113338
 H        -2.740910         1.989999         3.543561
 H        -0.811419         3.752385         3.155326
 H         1.182997         2.451284         1.233059
 H         0.946519         1.734383         2.777948
