19
Iteration:  3089charge 0 multiplicity 1
 O        -2.678746         3.829466         1.539991
 C        -1.811261         2.779181         1.680444
 C        -1.413519         1.952755         0.464203
 C        -0.552477         0.937695         1.265413
 O         0.119854        -0.019586         0.527602
 C        -1.703300         0.476966         2.244824
 C        -2.089864         1.770726         2.788426
 C        -0.769821         2.689077         2.771631
 C         0.313257         1.890407         2.088588
 H        -3.322346         3.610397         0.872469
 H        -2.272760         1.633352        -0.197840
 H        -0.819865         2.614116        -0.150704
 H         0.839968        -0.496788         1.063351
 H        -2.544793        -0.061801         1.838830
 H        -1.313109        -0.147125         3.004496
 H        -2.968767         1.936273         3.437070
 H        -0.752298         3.573556         3.423594
 H         0.993918         2.412300         1.399150
 H         1.104549         1.408842         2.699445
