19
Iteration:  3558charge 0 multiplicity 1
 O        -2.829002         3.852439         1.393105
 C        -1.881698         2.761133         1.693307
 C        -1.400590         2.007956         0.408253
 C        -0.590485         0.920797         1.281857
 O         0.059625        -0.134943         0.459388
 C        -1.582942         0.376350         2.411689
 C        -1.959329         1.731429         2.880912
 C        -0.799337         2.814141         2.705267
 C         0.328999         1.947636         2.053469
 H        -2.741856         4.402911         2.173254
 H        -2.220870         1.648458        -0.185663
 H        -0.600340         2.699539         0.017689
 H         0.773191        -0.599547         1.016907
 H        -2.379556        -0.038173         1.842471
 H        -1.174010        -0.341978         3.118907
 H        -2.679554         1.798347         3.656027
 H        -0.490096         3.574347         3.393973
 H         1.071819         2.608848         1.395432
 H         1.039540         1.450460         2.811553
