19
Iteration:  2148
 O        -2.826527         3.893561         1.579817
 C        -1.909289         2.852697         1.684131
 C        -1.451656         1.993967         0.381417
 C        -0.554193         0.950237         1.208891
 O         0.200783        -0.172084         0.634044
 C        -1.547928         0.421154         2.303699
 C        -2.030866         1.813546         2.739021
 C        -0.703107         2.758761         2.722009
 C         0.387225         1.882829         2.034180
 H        -3.721480         3.545666         1.544430
 H        -2.406167         1.573343         0.065731
 H        -1.105784         2.704386        -0.436792
 H        -0.486828        -0.946613         0.563481
 H        -2.361624        -0.180521         1.798226
 H        -1.171264        -0.233184         3.105204
 H        -2.862250         1.940055         3.417725
 H        -0.707976         3.512290         3.479613
 H         1.168229         2.459271         1.476015
 H         1.073006         1.409884         2.797318
