19
Iteration:  2282
 O        -2.861040         3.859481         1.534260
 C        -1.911745         2.823635         1.616404
 C        -1.397554         2.036164         0.420836
 C        -0.589790         0.926496         1.314583
 O         0.156132        -0.097181         0.523476
 C        -1.526169         0.417769         2.393099
 C        -1.959825         1.846326         2.780560
 C        -0.759314         2.784646         2.574498
 C         0.362930         1.832136         2.137292
 H        -3.734040         3.503378         1.589453
 H        -2.283151         1.504422        -0.012555
 H        -0.719909         2.532439        -0.260125
 H        -0.521058        -0.831393         0.472247
 H        -2.404370        -0.259214         2.119452
 H        -0.991308        -0.178902         3.105937
 H        -2.484980         1.902592         3.769708
 H        -0.586898         3.416031         3.440904
 H         0.951459         2.363285         1.342111
 H         1.110913         1.255645         2.768710
