19
Iteration:  4749charge 0 multiplicity 1
 O        -2.809580         3.751159         1.433004
 C        -1.945882         2.717729         1.655671
 C        -1.623015         1.834586         0.448073
 C        -0.594486         0.971561         1.233450
 O         0.059014         0.010330         0.452489
 C        -1.465889         0.482672         2.501881
 C        -1.955546         1.941758         2.951221
 C        -0.696951         2.720596         2.687385
 C         0.365019         1.861751         1.988539
 H        -2.161983         4.437827         1.239719
 H        -2.567870         1.305393         0.086163
 H        -1.087938         2.450845        -0.332464
 H         0.449281        -0.765908         0.820128
 H        -2.239652        -0.235459         2.248533
 H        -0.725558         0.100255         3.291338
 H        -2.539672         2.252869         3.795683
 H        -0.482920         3.679836         3.083239
 H         1.086082         2.372866         1.391647
 H         0.943676         1.249422         2.717783
