19
Iteration:  1108charge 0 multiplicity 1
 O        -2.703796         3.783305         1.678475
 C        -1.782082         2.777598         1.607141
 C        -1.395573         2.112630         0.395653
 C        -0.574589         0.904243         1.220653
 O         0.061543        -0.195460         0.631763
 C        -1.620457         0.481308         2.144583
 C        -2.046547         1.844793         2.754556
 C        -0.796566         2.744090         2.722498
 C         0.243962         1.894887         2.118379
 H        -3.492333         3.548642         1.199071
 H        -2.197988         1.742989        -0.129701
 H        -0.698214         2.587997        -0.297386
 H         1.054309        -0.191216         0.876348
 H        -2.335898        -0.259718         1.710168
 H        -0.982808        -0.006739         2.935020
 H        -2.820314         2.049713         3.489852
 H        -0.603741         3.566804         3.432220
 H         0.900343         2.584961         1.518201
 H         0.787422         1.253296         2.856733
