19
Iteration:  3402charge 0 multiplicity 1
 O        -2.783746         3.772246         1.511837
 C        -1.885880         2.704660         1.627136
 C        -1.399789         1.939319         0.489158
 C        -0.610279         0.949758         1.269546
 O         0.096578         0.035834         0.434875
 C        -1.650231         0.379766         2.390774
 C        -1.992648         1.852225         2.873889
 C        -0.786059         2.769311         2.632137
 C         0.324077         1.801870         2.174392
 H        -2.273797         4.363979         0.896803
 H        -2.171795         1.377056        -0.014936
 H        -0.653757         2.509339        -0.130948
 H         0.946810         0.339047         0.278234
 H        -2.542751        -0.081849         2.104061
 H        -1.042000        -0.134800         3.101807
 H        -2.903987         2.108913         3.434939
 H        -0.629809         3.635551         3.253611
 H         1.169796         2.358163         1.527020
 H         0.770061         1.226689         3.028912
