19
Iteration:    28charge 0 multiplicity 1
 O        -2.856700         3.747587         1.395781
 C        -1.928958         2.707979         1.704233
 C        -1.301062         2.076448         0.408156
 C        -0.469038         0.998514         1.254111
 O        -0.067258        -0.077776         0.356966
 C        -1.536150         0.505269         2.385554
 C        -1.965915         1.817188         2.864910
 C        -0.769577         2.726049         2.774677
 C         0.378718         1.825417         2.253830
 H        -3.549539         3.662385         2.038742
 H        -2.077211         1.498265        -0.151114
 H        -0.693990         2.761842        -0.244955
 H         0.556890         0.244490        -0.275890
 H        -2.419641        -0.073849         2.022609
 H        -1.079375        -0.247822         3.061822
 H        -2.699304         1.805657         3.690018
 H        -0.616085         3.681962         3.325460
 H         1.282262         2.313701         1.800582
 H         0.851788         1.152581         3.045645
