19
Iteration:  2639charge 0 multiplicity 1
 O        -2.599624         3.917532         1.614625
 C        -1.874894         2.736956         1.657663
 C        -1.505613         1.974427         0.356208
 C        -0.578474         0.894699         1.258156
 O         0.151911        -0.056236         0.522416
 C        -1.561233         0.399761         2.368611
 C        -2.128192         1.778771         2.756462
 C        -0.810715         2.689696         2.703136
 C         0.294031         1.949682         2.063527
 H        -3.274011         3.783261         0.924560
 H        -2.153559         1.375082        -0.315040
 H        -0.848563         2.676884        -0.152946
 H         0.033670        -0.831168         0.996027
 H        -2.378934        -0.334079         2.221795
 H        -1.039226         0.064212         3.396727
 H        -3.002700         1.964851         3.447332
 H        -0.507807         3.650971         3.153022
 H         0.948225         2.734262         1.474658
 H         1.048299         1.450389         2.806810
