19
Iteration:  2891
 O        -2.597863         3.925116         1.509228
 C        -1.948300         2.687232         1.678752
 C        -1.480217         1.981396         0.428531
 C        -0.628145         0.978949         1.256831
 O         0.152870        -0.020930         0.526358
 C        -1.563769         0.388345         2.297686
 C        -2.022534         1.801025         2.823541
 C        -0.811165         2.754484         2.664200
 C         0.237179         1.851598         2.129049
 H        -3.473801         3.681222         1.116383
 H        -2.228618         1.424703        -0.277096
 H        -0.761243         2.718841        -0.019528
 H         0.733622        -0.519952         1.209033
 H        -2.370437        -0.297652         1.968523
 H        -0.861799        -0.289753         2.863306
 H        -2.691406         2.050052         3.623692
 H        -0.609347         3.552073         3.433211
 H         1.072162         2.242510         1.507473
 H         0.591084         1.064938         2.770085
