19
Iteration:  2961
 O        -2.684686         3.896385         1.501864
 C        -1.914142         2.689895         1.660341
 C        -1.377188         2.050485         0.353062
 C        -0.589100         0.971328         1.234796
 O         0.012927        -0.017913         0.546857
 C        -1.486427         0.408002         2.297421
 C        -2.018656         1.793154         2.851891
 C        -0.822762         2.725249         2.689092
 C         0.298876         1.793520         2.147494
 H        -3.633777         3.740775         1.232930
 H        -1.995896         1.622206        -0.439978
 H        -0.656496         2.769489         0.059893
 H         0.478230        -0.509074         1.256634
 H        -2.153786        -0.237259         1.677285
 H        -0.934986        -0.305751         3.078184
 H        -2.771001         2.003806         3.612432
 H        -0.799848         3.573207         3.368023
 H         1.196669         2.353238         1.630426
 H         0.605835         1.160322         3.040951
