19
Iteration:  4372charge 0 multiplicity 1
 O        -2.828248         3.772481         1.384894
 C        -1.914847         2.745398         1.614398
 C        -1.413026         1.957460         0.504697
 C        -0.544324         0.987416         1.277877
 O        -0.240981        -0.126278         0.444248
 C        -1.372185         0.531732         2.560839
 C        -1.827717         1.855905         2.952003
 C        -0.695899         2.791085         2.688989
 C         0.384035         1.912140         1.935566
 H        -3.693510         3.312008         1.308983
 H        -2.171534         1.401227        -0.085873
 H        -0.800676         2.557623        -0.198725
 H         0.247450        -0.882703         0.880223
 H        -2.201274        -0.243006         2.467449
 H        -0.785242         0.186535         3.381530
 H        -2.607568         1.942580         3.715633
 H        -0.652914         3.638938         3.381097
 H         0.917646         2.352555         0.992343
 H         1.130577         1.427371         2.581507
