19
Iteration:  1805charge 0 multiplicity 1
 O        -2.666336         3.710232         1.297787
 C        -1.806683         2.738427         1.662340
 C        -1.435306         1.932641         0.477130
 C        -0.636557         0.915599         1.270680
 O         0.091630         0.098033         0.318536
 C        -1.628713         0.444699         2.387590
 C        -2.070053         1.858399         2.859790
 C        -0.779526         2.711519         2.876001
 C         0.340644         1.880210         2.222575
 H        -2.701301         4.278195         2.069742
 H        -2.208341         1.333354        -0.098820
 H        -0.908707         2.590318        -0.204892
 H         0.031037        -0.749012         0.644264
 H        -2.474928        -0.072978         2.086703
 H        -1.117780        -0.217208         3.119441
 H        -2.727549         2.133621         3.691796
 H        -0.800272         3.716060         3.358758
 H         1.094970         2.388096         1.610711
 H         0.879828         1.290792         2.882390
