19
Iteration:  2706charge 0 multiplicity 1
 O        -2.736529         3.792960         1.472251
 C        -1.809754         2.766687         1.616141
 C        -1.373834         1.906005         0.454941
 C        -0.535077         0.927681         1.258428
 O         0.073902        -0.005912         0.400293
 C        -1.724057         0.501269         2.383384
 C        -1.992484         1.882206         2.825265
 C        -0.727930         2.747179         2.732185
 C         0.273265         1.838242         2.163602
 H        -3.528723         3.321883         1.752516
 H        -2.217970         1.504499        -0.089837
 H        -0.740427         2.512518        -0.151806
 H         0.928439        -0.345106         0.866657
 H        -2.566857         0.050473         1.858477
 H        -1.456519        -0.312879         3.145637
 H        -2.830828         2.027805         3.501236
 H        -0.557330         3.586624         3.360947
 H         1.199356         2.332198         1.636531
 H         0.728145         1.304078         3.051519
