19
Iteration:  1487charge 0 multiplicity 1
 O        -2.731923         3.921819         1.696362
 C        -1.919789         2.767620         1.595176
 C        -1.390418         1.960526         0.344727
 C        -0.550275         0.961079         1.201411
 O         0.133854        -0.099410         0.753267
 C        -1.612051         0.377644         2.183867
 C        -1.954997         1.729807         2.819837
 C        -0.848931         2.741961         2.615871
 C         0.299580         1.909437         2.061401
 H        -2.133833         4.656373         1.544672
 H        -2.271787         1.567390        -0.213094
 H        -0.969085         2.436530        -0.485650
 H        -0.456139        -0.694060         0.303241
 H        -2.372591        -0.155893         1.570616
 H        -1.056537        -0.258474         2.979661
 H        -2.707186         2.005631         3.520117
 H        -0.888085         3.447162         3.455170
 H         1.133987         2.406657         1.409893
 H         0.690589         1.453635         2.975524
