19
Iteration:  1708charge 0 multiplicity 1
 O        -2.832839         3.933001         1.499142
 C        -1.941383         2.790594         1.680235
 C        -1.340417         1.971748         0.502270
 C        -0.501812         0.947498         1.297946
 O         0.105672        -0.126730         0.523088
 C        -1.658674         0.371180         2.220184
 C        -1.967221         1.785595         2.785437
 C        -0.724620         2.765399         2.739778
 C         0.333716         1.861293         2.221711
 H        -2.708367         4.166555         0.573321
 H        -2.236468         1.480779         0.034737
 H        -0.899346         2.658189        -0.166326
 H        -0.057451        -0.062114        -0.364672
 H        -2.587098        -0.032841         1.756749
 H        -1.240458        -0.472938         2.921871
 H        -2.737888         1.868784         3.536226
 H        -0.640072         3.538555         3.487432
 H         1.227965         2.109743         1.543191
 H         0.794908         1.327393         3.071100
