19
Iteration:  4075charge 0 multiplicity 1
 O        -2.904117         3.870413         1.482835
 C        -1.942620         2.814899         1.607275
 C        -1.456410         1.935510         0.447278
 C        -0.578282         0.859468         1.321077
 O         0.071233        -0.117966         0.507065
 C        -1.534824         0.440812         2.450807
 C        -1.891160         1.867336         2.854649
 C        -0.707561         2.766702         2.599423
 C         0.274897         1.822628         1.985380
 H        -2.508990         4.653265         1.966955
 H        -2.151787         1.330963        -0.143923
 H        -0.842231         2.555231        -0.167852
 H         1.002721        -0.229331         0.794985
 H        -2.382159        -0.157156         2.227629
 H        -1.032527        -0.130582         3.180241
 H        -2.544137         1.959839         3.722825
 H        -0.474115         3.565458         3.307204
 H         1.048273         2.317410         1.408086
 H         0.902356         1.404000         2.775480
