19
Iteration:  3357
 O        -2.744146         3.960083         1.556313
 C        -1.960498         2.735622         1.700701
 C        -1.447012         1.994499         0.436434
 C        -0.517781         0.992904         1.204054
 O         0.062360        -0.166796         0.726986
 C        -1.531673         0.392609         2.161245
 C        -2.043617         1.720013         2.786621
 C        -0.750479         2.682279         2.702095
 C         0.348274         1.959077         2.138356
 H        -3.173193         3.920315         0.673238
 H        -2.318051         1.500050        -0.039540
 H        -1.069961         2.809502        -0.269772
 H         0.450132        -0.018425        -0.089806
 H        -2.226435        -0.213733         1.637951
 H        -0.922033        -0.130419         2.845866
 H        -2.673264         1.705772         3.671045
 H        -0.547215         3.556258         3.282906
 H         1.109418         2.590609         1.464302
 H         0.785893         1.262571         2.863349
