19
Iteration:  4174charge 0 multiplicity 1
 O        -2.742386         3.896708         1.580825
 C        -1.914710         2.790962         1.654966
 C        -1.597829         1.781721         0.361715
 C        -0.638870         0.923831         1.235175
 O         0.127833        -0.056187         0.588698
 C        -1.447044         0.410958         2.431099
 C        -1.937127         1.833160         2.881148
 C        -0.750561         2.729966         2.668292
 C         0.310861         1.969632         1.939326
 H        -2.491741         4.427845         0.800336
 H        -2.598728         1.404210         0.094641
 H        -1.020379         2.197556        -0.425062
 H        -0.413786        -0.952737         0.626638
 H        -2.286337        -0.247687         2.257469
 H        -0.843521         0.158906         3.256307
 H        -2.722482         2.086816         3.700228
 H        -0.346740         3.683843         3.072872
 H         1.015625         2.565398         1.299703
 H         0.920008         1.346781         2.659416
