19
Iteration:  1398
 O        -2.847541         3.806019         1.403387
 C        -1.835349         2.771624         1.759291
 C        -1.309743         2.040703         0.515526
 C        -0.514160         0.911342         1.224983
 O         0.063166        -0.092302         0.404942
 C        -1.617013         0.431493         2.324370
 C        -2.098569         1.850818         2.825079
 C        -0.720621         2.754634         2.747360
 C         0.359740         1.814040         2.248379
 H        -2.783085         4.157201         0.520805
 H        -2.203519         1.720188        -0.022669
 H        -0.710517         2.810644         0.034502
 H        -0.511507        -0.091592        -0.336349
 H        -2.341603        -0.304894         1.937846
 H        -1.161178        -0.015338         3.266219
 H        -2.562491         1.990039         3.832912
 H        -0.665563         3.515474         3.510684
 H         1.258666         2.272252         1.735717
 H         0.733664         1.027954         2.956728
