19
Iteration:  2105charge 0 multiplicity 1
 O        -2.701076         3.918508         1.600633
 C        -1.958706         2.731322         1.599664
 C        -1.469768         1.938926         0.470194
 C        -0.530684         0.910851         1.328227
 O         0.242736        -0.041556         0.569732
 C        -1.713878         0.388393         2.315278
 C        -2.005869         1.769995         2.865287
 C        -0.787421         2.811113         2.588160
 C         0.357095         1.914369         2.046803
 H        -3.615041         3.686394         1.509625
 H        -2.089005         1.288297        -0.274053
 H        -0.674422         2.514619        -0.172991
 H        -0.327895        -0.577899        -0.027271
 H        -2.564185        -0.200611         1.872403
 H        -1.250526        -0.285040         3.041560
 H        -2.740950         2.095244         3.604107
 H        -0.629613         3.650538         3.242465
 H         1.118833         2.206101         1.301908
 H         1.101255         1.420201         2.732212
