19
Iteration:  1977
 O        -2.783326         3.928229         1.539740
 C        -1.964207         2.740656         1.659719
 C        -1.414377         2.017353         0.402058
 C        -0.562265         0.949221         1.260397
 O         0.254562        -0.161039         0.582008
 C        -1.595427         0.432639         2.319941
 C        -1.974739         1.804315         2.828650
 C        -0.777721         2.733957         2.651607
 C         0.325191         1.907051         2.062872
 H        -3.605134         3.619305         2.018588
 H        -2.139692         1.673985        -0.247434
 H        -0.832015         2.631621        -0.274742
 H        -0.481641        -0.796898         0.383907
 H        -2.376981        -0.058465         1.670200
 H        -1.231867        -0.210969         3.128134
 H        -2.644124         1.921204         3.717671
 H        -0.745456         3.651272         3.302345
 H         1.003699         2.453621         1.418389
 H         0.763522         1.222892         2.822685
