19
Iteration:  4899
 O        -2.832132         3.889619         1.394083
 C        -1.937988         2.764001         1.713273
 C        -1.523534         1.973744         0.469864
 C        -0.583180         0.955012         1.254605
 O         0.005328        -0.166149         0.578637
 C        -1.407375         0.418339         2.398411
 C        -1.945380         1.707227         2.920854
 C        -0.777489         2.754239         2.637039
 C         0.335312         1.978438         1.924219
 H        -2.324557         4.698822         1.568439
 H        -2.363913         1.458895         0.037909
 H        -0.895448         2.344270        -0.313757
 H         0.358671        -0.720317         1.221471
 H        -2.228883        -0.274562         2.012800
 H        -0.833080        -0.117340         3.117353
 H        -2.441030         1.954696         3.818304
 H        -0.352656         3.420097         3.372615
 H         0.925680         2.756436         1.242639
 H         1.119895         1.687965         2.642435
