19
Iteration:  4515charge 0 multiplicity 1
 O        -3.082275         3.796983         1.541800
 C        -1.863779         2.770961         1.664112
 C        -1.444150         1.842941         0.488358
 C        -0.593396         0.895503         1.277304
 O         0.053731        -0.022514         0.402512
 C        -1.579702         0.499211         2.512589
 C        -1.831370         2.000449         2.915141
 C        -0.558053         2.861753         2.579123
 C         0.415030         1.739235         2.021559
 H        -3.030523         3.802859         0.539635
 H        -2.351659         1.322733         0.188192
 H        -0.780277         2.268448        -0.318785
 H         0.411880        -0.760769         0.916765
 H        -2.625388         0.089093         2.237853
 H        -1.195893        -0.201223         3.247631
 H        -2.644133         2.090063         3.649656
 H        -0.205632         3.732730         3.105646
 H         1.045492         2.092435         1.145859
 H         0.964795         1.259393         2.791390
