19
Iteration:  4636
 O        -2.872412         3.695952         1.421546
 C        -1.926263         2.714354         1.726009
 C        -1.549798         1.809849         0.599603
 C        -0.549095         0.908055         1.276423
 O        -0.018485        -0.063423         0.410373
 C        -1.600738         0.555129         2.450763
 C        -1.885644         1.891122         2.962663
 C        -0.678627         2.850528         2.508387
 C         0.487508         1.922506         1.983553
 H        -2.693937         4.490759         1.948018
 H        -2.318773         1.315273         0.037716
 H        -0.852305         2.354364        -0.062304
 H         0.723526        -0.463283         1.010231
 H        -2.518034         0.184511         1.856250
 H        -1.353423        -0.290714         3.082533
 H        -2.411975         2.271637         3.811114
 H        -0.457630         3.796567         3.051995
 H         1.211136         2.388473         1.251024
 H         1.021232         1.406826         2.714867
