19
Iteration:  3347charge 0 multiplicity 1
 O        -2.667340         3.909881         1.565518
 C        -1.942147         2.729794         1.683305
 C        -1.525157         2.019942         0.381657
 C        -0.542574         1.037502         1.217296
 O         0.075989        -0.195005         0.702124
 C        -1.478850         0.458137         2.172303
 C        -2.038106         1.705717         2.819642
 C        -0.842012         2.790573         2.685134
 C         0.320958         1.880055         2.139367
 H        -3.353942         3.704399         0.908825
 H        -2.368302         1.656251        -0.255439
 H        -0.742238         2.734530        -0.173649
 H         0.543737        -0.112023        -0.128747
 H        -2.184961        -0.163438         1.695913
 H        -0.992486        -0.194014         2.900853
 H        -2.522306         1.589861         3.774917
 H        -0.861321         3.601172         3.378547
 H         1.312757         2.403098         1.654604
 H         0.877914         1.282842         2.899304
