19
Iteration:   232charge 0 multiplicity 1
 O        -2.512878         4.161343         1.572792
 C        -2.010596         2.755946         1.675469
 C        -1.508784         1.907090         0.497292
 C        -0.528308         0.959116         1.275036
 O         0.272565         0.013728         0.452224
 C        -1.605273         0.333441         2.201334
 C        -2.137135         1.624490         2.815120
 C        -0.931250         2.598313         2.706949
 C         0.279948         1.906638         2.154082
 H        -3.365141         3.973961         1.181305
 H        -2.121970         1.357414        -0.184585
 H        -0.884188         2.489500        -0.199974
 H         0.534918        -0.701456         1.008348
 H        -2.270302        -0.141657         1.512269
 H        -1.342764        -0.397812         2.986666
 H        -2.757368         1.620292         3.689625
 H        -0.774183         3.463622         3.315380
 H         0.917210         2.544057         1.599559
 H         0.889547         1.385099         2.897896
