19
Iteration:  1742charge 0 multiplicity 1
 O        -2.717068         3.828938         1.681189
 C        -1.889945         2.712019         1.572761
 C        -1.364893         1.986952         0.354457
 C        -0.581193         0.932013         1.194282
 O         0.194056        -0.162291         0.646643
 C        -1.652330         0.510917         2.322884
 C        -2.101890         1.858768         2.724440
 C        -0.850219         2.675126         2.719289
 C         0.258269         1.876361         2.099644
 H        -2.260219         4.671460         1.726217
 H        -2.171091         1.433170        -0.191361
 H        -0.935419         2.697970        -0.315777
 H         0.831745         0.199078         0.067132
 H        -2.527471        -0.092062         1.915816
 H        -1.079777        -0.082736         3.120382
 H        -2.934059         2.060634         3.391427
 H        -0.520789         3.603537         3.248472
 H         0.908229         2.371179         1.304151
 H         0.913390         1.234942         2.755306
