19
Iteration:  2120charge 0 multiplicity 1
 O        -2.726461         3.866042         1.660507
 C        -1.940734         2.725027         1.659791
 C        -1.380183         1.945539         0.356947
 C        -0.645651         0.903127         1.209136
 O         0.245450        -0.022949         0.717343
 C        -1.613764         0.434857         2.280098
 C        -1.964123         1.842399         2.823488
 C        -0.746102         2.748721         2.579003
 C         0.292025         1.859543         1.995871
 H        -3.692218         3.637750         1.656172
 H        -2.333111         1.647805        -0.234203
 H        -0.830037         2.662852        -0.229214
 H        -0.272451        -0.885097         0.391210
 H        -2.511490         0.201262         1.696452
 H        -1.360296        -0.376678         2.983157
 H        -2.698007         1.942304         3.632249
 H        -0.658628         3.719635         3.101724
 H         0.932116         2.473046         1.381931
 H         0.793346         1.381021         2.842398
