19
Iteration:  3310charge 0 multiplicity 1
 O        -2.754751         3.897465         1.500630
 C        -1.861587         2.840342         1.640846
 C        -1.363041         1.876857         0.495850
 C        -0.565314         0.853325         1.358419
 O         0.086105        -0.005586         0.458246
 C        -1.648355         0.415230         2.363425
 C        -2.113582         1.804116         2.735705
 C        -0.780017         2.730427         2.699290
 C         0.406659         1.834027         2.106274
 H        -3.586466         3.610247         1.862904
 H        -2.080016         1.323568        -0.167949
 H        -0.610288         2.262342        -0.084442
 H         0.922183         0.539573         0.185323
 H        -2.398706        -0.097771         1.685170
 H        -1.274070        -0.030492         3.268891
 H        -2.738712         1.984086         3.651669
 H        -0.736177         3.530859         3.507998
 H         0.865253         2.408370         1.266772
 H         1.111256         1.348583         2.791935
