19
Iteration:  1058charge 0 multiplicity 1
 O        -2.518369         3.975572         1.448739
 C        -1.909020         2.735038         1.712756
 C        -1.449749         1.950655         0.519007
 C        -0.557007         0.910371         1.216155
 O         0.176864        -0.072182         0.434492
 C        -1.617087         0.374837         2.290277
 C        -2.129540         1.730162         2.854238
 C        -0.885064         2.751095         2.700230
 C         0.276552         1.883082         2.197369
 H        -3.506513         3.877748         1.588247
 H        -2.273856         1.310171         0.008902
 H        -0.915211         2.553326        -0.280507
 H         0.969531         0.408492         0.028833
 H        -2.523380        -0.089948         1.826466
 H        -1.273428        -0.305694         3.056834
 H        -2.903074         1.790701         3.672904
 H        -0.842545         3.558661         3.447032
 H         0.973163         2.556146         1.728382
 H         0.695863         1.264455         3.016806
