19
Iteration:  1719charge 0 multiplicity 1
 O        -2.804614         3.898186         1.634866
 C        -1.839072         2.812333         1.624040
 C        -1.416721         1.920194         0.423069
 C        -0.592478         0.907049         1.259112
 O         0.125651        -0.091369         0.648548
 C        -1.647411         0.415266         2.218242
 C        -2.033431         1.759739         2.704637
 C        -0.746253         2.753931         2.664880
 C         0.380386         1.888345         2.213835
 H        -2.724630         4.514065         0.873845
 H        -2.212833         1.312886        -0.085304
 H        -0.858349         2.423701        -0.334774
 H         0.154392         0.096776        -0.334879
 H        -2.467836         0.005793         1.598922
 H        -1.317660        -0.377197         3.000030
 H        -2.855349         1.878233         3.392835
 H        -0.438998         3.413470         3.463619
 H         1.241686         2.416857         1.652033
 H         0.757025         1.323198         3.069868
