19
Iteration:  2184
 O        -2.655085         3.878407         1.427534
 C        -1.952553         2.599144         1.670095
 C        -1.373697         1.929524         0.409977
 C        -0.569654         0.928298         1.241044
 O         0.079142         0.060202         0.422410
 C        -1.564906         0.386898         2.533028
 C        -1.967856         1.763901         2.935858
 C        -0.830098         2.806583         2.703398
 C         0.340735         1.931101         2.137169
 H        -3.566528         3.803298         1.165331
 H        -2.146248         1.299769        -0.240832
 H        -0.746705         2.518140        -0.293989
 H        -0.536486        -0.549633        -0.115359
 H        -2.433798        -0.092303         2.034780
 H        -1.017181        -0.289785         3.155566
 H        -2.734974         2.070948         3.634570
 H        -0.708394         3.735804         3.291668
 H         0.969069         2.420430         1.449987
 H         0.838099         1.326695         2.865909
