19
Iteration:  2163
 O        -2.788306         3.927253         1.513441
 C        -1.874149         2.771099         1.636181
 C        -1.427850         1.960093         0.547969
 C        -0.497956         0.902067         1.317088
 O         0.097010        -0.086008         0.505345
 C        -1.518575         0.454449         2.300696
 C        -2.025153         1.779240         2.791688
 C        -0.813518         2.721910         2.636435
 C         0.368721         1.942930         2.105982
 H        -3.682848         3.476397         1.429185
 H        -2.249400         1.377391        -0.081374
 H        -0.701022         2.377628        -0.156094
 H        -0.566907        -0.810855         0.331811
 H        -2.293183        -0.179032         1.813233
 H        -1.059061        -0.077430         3.129568
 H        -2.594818         1.921315         3.713242
 H        -0.494383         3.522232         3.323224
 H         0.915675         2.548479         1.429624
 H         0.930119         1.412310         2.844773
