19
Iteration:  2124charge 0 multiplicity 1
 O        -2.745460         3.860077         1.666090
 C        -1.911845         2.751868         1.634506
 C        -1.412278         1.959548         0.352652
 C        -0.631532         0.918822         1.168594
 O         0.235710        -0.049770         0.737897
 C        -1.603427         0.507687         2.263058
 C        -1.952870         1.798677         2.832751
 C        -0.739985         2.711163         2.588661
 C         0.230183         1.859032         2.018561
 H        -3.655264         3.572683         1.672404
 H        -2.240649         1.676856        -0.162413
 H        -0.763252         2.559987        -0.273608
 H        -0.133991        -0.878099         0.502133
 H        -2.484333         0.129556         1.713883
 H        -1.274561        -0.324780         2.912871
 H        -2.616475         2.069533         3.693706
 H        -0.618625         3.666035         3.077502
 H         0.986852         2.496803         1.450692
 H         0.902440         1.388748         2.762630
