19
Iteration:  1824charge 0 multiplicity 1
 O        -2.772698         3.842643         1.362845
 C        -1.901140         2.822518         1.635454
 C        -1.329722         1.942931         0.506403
 C        -0.582467         0.895788         1.322476
 O         0.128275         0.082973         0.422122
 C        -1.608888         0.418149         2.416312
 C        -2.003903         1.764559         2.875923
 C        -0.771453         2.733013         2.647289
 C         0.305164         1.795839         2.157684
 H        -3.265272         4.181738         2.130662
 H        -2.178285         1.605551        -0.052068
 H        -0.593183         2.494839        -0.119313
 H        -0.330702        -0.710167         0.327930
 H        -2.393316        -0.188804         1.936071
 H        -1.201484        -0.153186         3.226036
 H        -2.865813         2.086282         3.444836
 H        -0.426019         3.397261         3.405224
 H         1.103739         2.209173         1.547216
 H         0.848899         1.201034         2.954993
