19
Iteration:   992charge 0 multiplicity 1
 O        -2.716014         3.836257         1.670999
 C        -1.886105         2.758073         1.600189
 C        -1.291524         2.093426         0.448151
 C        -0.539206         0.896991         1.226545
 O         0.142176        -0.161263         0.603350
 C        -1.712630         0.475360         2.200940
 C        -2.036981         1.771068         2.794671
 C        -0.815498         2.764117         2.598401
 C         0.303417         1.863845         2.258780
 H        -3.454306         3.783272         1.091075
 H        -2.053895         1.778594        -0.332759
 H        -0.532604         2.710057        -0.077093
 H         0.115897        -0.132487        -0.347141
 H        -2.533444         0.078691         1.559782
 H        -1.289234        -0.250244         2.861669
 H        -2.813852         1.826605         3.526186
 H        -0.675221         3.606523         3.275256
 H         0.985372         2.436218         1.666426
 H         0.855601         1.284688         2.980008
