19
Iteration:   799
 O        -2.604535         3.935157         1.494665
 C        -1.915433         2.745249         1.699471
 C        -1.364792         2.046123         0.511864
 C        -0.539303         0.917126         1.306037
 O         0.103449         0.050526         0.486249
 C        -1.581926         0.388286         2.189551
 C        -2.180755         1.732682         2.745712
 C        -0.855148         2.641111         2.734381
 C         0.239414         1.765706         2.286096
 H        -2.810721         3.939701         0.565834
 H        -2.164639         1.722761        -0.216934
 H        -0.601600         2.702049        -0.077336
 H         0.922265         0.351817         0.026241
 H        -2.225656        -0.260027         1.602967
 H        -1.083278        -0.232976         2.993991
 H        -2.786301         1.658208         3.619012
 H        -0.852145         3.370749         3.522251
 H         0.925387         2.442054         1.688829
 H         0.740776         1.102633         3.020119
