19
Iteration:  4039charge 0 multiplicity 1
 O        -2.653427         3.832150         1.510358
 C        -1.887242         2.661104         1.697480
 C        -1.538173         1.851245         0.485623
 C        -0.501891         0.997214         1.290842
 O        -0.041165        -0.087571         0.502700
 C        -1.486360         0.491115         2.379742
 C        -2.047118         1.801421         2.793554
 C        -0.793379         2.692733         2.694325
 C         0.345232         2.062130         2.034018
 H        -2.486081         4.181376         0.586017
 H        -2.218789         1.106429         0.093169
 H        -1.318329         2.511489        -0.372594
 H         0.666286        -0.576116         0.899600
 H        -2.253488        -0.136352         1.952280
 H        -1.082896         0.154595         3.319643
 H        -2.713155         1.858932         3.633776
 H        -0.642186         3.552605         3.357698
 H         0.686774         2.679185         1.214715
 H         1.053674         1.470716         2.712597
