19
Iteration:  2846
 O        -2.719017         3.821424         1.566817
 C        -1.891221         2.777439         1.656575
 C        -1.316876         1.908644         0.480324
 C        -0.514169         0.880521         1.324075
 O        -0.025161        -0.076481         0.494358
 C        -1.626360         0.477783         2.240249
 C        -2.086045         1.813762         2.708282
 C        -0.725578         2.816558         2.704034
 C         0.376915         1.951876         2.130359
 H        -3.671427         3.508739         1.595551
 H        -2.226455         1.423599        -0.079189
 H        -0.478575         2.445257        -0.128524
 H         0.709716        -0.558645         0.963013
 H        -2.291626        -0.075737         1.516058
 H        -1.521658        -0.247769         3.095251
 H        -2.902369         1.786709         3.407239
 H        -0.570611         3.579118         3.491481
 H         0.938631         2.476299         1.376640
 H         0.996621         1.629893         2.964775
