19
Iteration:  3247
 O        -2.700428         3.930884         1.550594
 C        -1.923141         2.771757         1.674770
 C        -1.389618         2.015108         0.465509
 C        -0.539285         0.915306         1.311836
 O         0.030358        -0.155340         0.597421
 C        -1.551592         0.335858         2.273562
 C        -2.089040         1.768390         2.759666
 C        -0.798635         2.718416         2.635317
 C         0.367508         1.960784         2.094552
 H        -3.652636         3.694944         1.522095
 H        -2.040902         1.489508        -0.302030
 H        -0.838796         2.824925        -0.148182
 H         0.935720         0.162121         0.171161
 H        -2.198926        -0.362122         1.801346
 H        -1.180173        -0.196948         3.108141
 H        -2.734425         1.871289         3.658761
 H        -0.708596         3.605810         3.285156
 H         0.876839         2.652083         1.289357
 H         1.021645         1.419868         2.779876
