19
Iteration:  2191charge 0 multiplicity 1
 O        -2.603233         3.851873         1.416636
 C        -1.939495         2.609797         1.622571
 C        -1.500526         1.946265         0.462217
 C        -0.605874         0.944840         1.267554
 O         0.151822         0.053403         0.416804
 C        -1.548286         0.423427         2.502574
 C        -1.979744         1.789238         2.948185
 C        -0.813908         2.737372         2.678540
 C         0.275585         1.916517         2.133446
 H        -3.479453         3.548637         1.051665
 H        -2.260332         1.569723        -0.122458
 H        -0.740450         2.577082        -0.090759
 H        -0.488275        -0.344328        -0.318341
 H        -2.487123        -0.173800         2.307703
 H        -1.081142        -0.213216         3.308749
 H        -2.751524         2.001373         3.657310
 H        -0.558199         3.687384         3.105393
 H         1.136000         2.584676         1.666322
 H         0.964928         1.272695         2.828536
