19
Iteration:  3888charge 0 multiplicity 1
 O        -2.813887         3.854559         1.463478
 C        -1.824335         2.807063         1.601117
 C        -1.564159         1.762158         0.574566
 C        -0.525007         0.873474         1.341814
 O         0.082589         0.044897         0.329957
 C        -1.574479         0.396510         2.406648
 C        -1.987384         1.874356         2.733493
 C        -0.744793         2.758255         2.721459
 C         0.333897         1.875123         2.162230
 H        -2.245443         4.656867         1.322276
 H        -2.575490         1.293439         0.384762
 H        -1.006636         2.229786        -0.268809
 H         0.681941        -0.485008         0.795359
 H        -2.288698        -0.296585         1.885651
 H        -1.143938        -0.255068         3.315023
 H        -2.790362         2.156620         3.474389
 H        -0.612122         3.619740         3.371096
 H         1.127023         2.466347         1.546988
 H         0.858001         1.460960         3.081320
