19
Iteration:  1848charge 0 multiplicity 1
 O        -2.791405         3.933645         1.487002
 C        -1.977369         2.780795         1.646489
 C        -1.402713         2.011730         0.425331
 C        -0.517152         0.935392         1.216983
 O         0.178759        -0.173349         0.652616
 C        -1.604668         0.444717         2.236000
 C        -1.967916         1.794869         2.805717
 C        -0.769558         2.729742         2.655070
 C         0.352474         1.841978         2.166571
 H        -3.551178         3.870879         2.065484
 H        -2.321969         1.595694        -0.043017
 H        -0.885601         2.689953        -0.241416
 H        -0.381783        -0.454176        -0.090266
 H        -2.399838        -0.119313         1.872849
 H        -1.138970        -0.138698         3.036308
 H        -2.595308         1.873387         3.731342
 H        -0.577397         3.610793         3.324085
 H         0.975160         2.495583         1.563397
 H         1.005413         1.340644         2.831500
