19
Iteration:  3889
 O        -2.809884         3.850679         1.461995
 C        -1.825066         2.802032         1.597186
 C        -1.565715         1.769718         0.586977
 C        -0.527195         0.867705         1.341016
 O         0.083830         0.047894         0.327323
 C        -1.579471         0.392516         2.409127
 C        -1.987827         1.869999         2.729058
 C        -0.737040         2.763993         2.718394
 C         0.328627         1.884393         2.169230
 H        -2.240959         4.667634         1.356730
 H        -2.578739         1.293652         0.369491
 H        -1.026245         2.215951        -0.279027
 H         0.686440        -0.522463         0.819399
 H        -2.270719        -0.302157         1.871062
 H        -1.163668        -0.251149         3.293073
 H        -2.788570         2.146113         3.476540
 H        -0.583864         3.646812         3.353519
 H         1.118601         2.447358         1.566352
 H         0.857262         1.478643         3.031146
