19
Iteration:   372
 O        -2.555145         4.076954         1.510594
 C        -1.969978         2.757285         1.650488
 C        -1.346873         1.944165         0.454765
 C        -0.520603         0.961704         1.205881
 O         0.256201        -0.074661         0.409963
 C        -1.656296         0.374219         2.229825
 C        -2.098923         1.706485         2.804636
 C        -0.951679         2.611939         2.832611
 C         0.193604         1.888554         2.336596
 H        -3.427373         3.905032         1.113143
 H        -2.129646         1.573576        -0.230101
 H        -0.798565         2.465339        -0.286216
 H         0.617478         0.453384        -0.256198
 H        -2.394001        -0.237878         1.656882
 H        -1.320492        -0.280696         3.067568
 H        -2.850802         1.645832         3.602592
 H        -0.702344         3.273432         3.672752
 H         1.016449         2.541466         1.897681
 H         0.665531         1.097680         2.968163
