19
Iteration:   733
 O        -2.732325         3.915425         1.547154
 C        -1.824438         2.773881         1.670656
 C        -1.308123         2.126425         0.333176
 C        -0.553935         0.990047         1.188199
 O         0.192912        -0.092996         0.687633
 C        -1.682496         0.389650         2.076262
 C        -2.178873         1.705719         2.696155
 C        -0.838566         2.654853         2.789146
 C         0.320228         1.765325         2.289243
 H        -3.294722         3.900112         2.375944
 H        -2.144598         2.016286        -0.432044
 H        -0.554335         2.904639        -0.102298
 H         0.374575         0.059897        -0.234290
 H        -2.448218        -0.090646         1.495902
 H        -1.169739        -0.197889         2.872797
 H        -2.902706         1.837225         3.535547
 H        -0.691509         3.474266         3.523138
 H         1.135137         2.372002         1.795825
 H         0.798750         1.091300         3.011831
