19
Iteration:   804charge 0 multiplicity 1
 O        -2.652227         3.996811         1.514399
 C        -1.930335         2.772489         1.692649
 C        -1.364466         2.044181         0.517162
 C        -0.574891         0.948644         1.252043
 O         0.133284         0.018815         0.518481
 C        -1.580089         0.359106         2.201398
 C        -2.183384         1.705965         2.722366
 C        -0.851440         2.633156         2.726714
 C         0.294539         1.748099         2.288738
 H        -2.814566         4.026036         0.542185
 H        -2.077728         1.588084        -0.157522
 H        -0.640124         2.545234        -0.069117
 H         0.920115         0.276466         0.078286
 H        -2.267090        -0.209509         1.529829
 H        -1.120924        -0.198342         2.986616
 H        -2.836687         1.646595         3.622313
 H        -0.801799         3.381716         3.532036
 H         0.954544         2.427625         1.786905
 H         0.937940         1.131420         2.927023
