19
Iteration:  1521
 O        -2.884372         3.786036         1.415412
 C        -1.835420         2.786562         1.701243
 C        -1.317825         1.968054         0.502989
 C        -0.533350         0.913428         1.209859
 O         0.172316        -0.013577         0.414590
 C        -1.738948         0.518777         2.417331
 C        -2.041974         1.901210         2.871853
 C        -0.782880         2.663246         2.812441
 C         0.379045         1.761889         2.099854
 H        -2.359875         4.380543         0.865951
 H        -2.233076         1.500752         0.027744
 H        -0.628190         2.534998        -0.061025
 H        -0.457642        -0.425004        -0.098258
 H        -2.461802        -0.158272         1.932633
 H        -1.235134        -0.168554         3.209130
 H        -2.706618         2.267926         3.647387
 H        -0.542584         3.350033         3.662789
 H         1.133685         2.293227         1.365109
 H         1.012449         1.306550         2.891451
