19
Iteration:  4732charge 0 multiplicity 1
 O        -2.752100         3.771045         1.369623
 C        -1.859410         2.774479         1.739058
 C        -1.626229         1.750557         0.602902
 C        -0.648608         0.884543         1.320731
 O         0.157986         0.120409         0.397805
 C        -1.588699         0.445541         2.513776
 C        -1.889310         1.840937         2.927035
 C        -0.668161         2.830232         2.531985
 C         0.287766         1.868954         1.961232
 H        -2.403891         4.669967         1.446433
 H        -2.500504         1.191343         0.355716
 H        -1.224277         2.194517        -0.294088
 H         0.221638        -0.694575         0.937617
 H        -2.562308        -0.035957         2.233762
 H        -1.185474        -0.216067         3.247102
 H        -2.683918         1.896960         3.670921
 H        -0.534698         3.588131         3.335285
 H         0.854182         2.325245         1.097622
 H         1.113732         1.478959         2.630428
