19
Iteration:  2690charge 0 multiplicity 1
 O        -2.681377         3.781373         1.432631
 C        -1.903421         2.680907         1.672651
 C        -1.387927         1.970064         0.485910
 C        -0.598415         0.894633         1.319545
 O         0.017662         0.000951         0.380762
 C        -1.711913         0.440324         2.277466
 C        -1.993508         1.814285         2.889886
 C        -0.791893         2.813899         2.629159
 C         0.497796         1.902425         2.285607
 H        -3.614712         3.750272         1.456118
 H        -2.185026         1.388696        -0.029764
 H        -0.802742         2.558701        -0.302918
 H         0.735231        -0.502822         0.882343
 H        -2.600594         0.133340         1.664142
 H        -1.328682        -0.218119         2.999998
 H        -2.601004         2.223479         3.706202
 H        -0.812617         3.729929         3.290402
 H         1.181335         2.365556         1.693752
 H         0.996311         1.256370         3.005796
