19
Iteration:  3885charge 0 multiplicity 1
 O        -2.820677         3.865184         1.468170
 C        -1.827535         2.821062         1.617209
 C        -1.551274         1.748689         0.529315
 C        -0.525112         0.892339         1.340165
 O         0.071634         0.041552         0.339059
 C        -1.554993         0.402983         2.404536
 C        -1.993338         1.884024         2.763917
 C        -0.772761         2.739952         2.721724
 C         0.361281         1.851020         2.143708
 H        -2.290599         4.615844         1.208356
 H        -2.507639         1.288791         0.393234
 H        -0.986140         2.237284        -0.270904
 H         0.787873        -0.475645         0.789141
 H        -2.339265        -0.234744         1.956538
 H        -1.124602        -0.176001         3.292569
 H        -2.762538         2.157401         3.448509
 H        -0.690007         3.536066         3.441064
 H         1.086873         2.464093         1.532649
 H         0.843562         1.400293         3.145226
