19
Iteration:  3694charge 0 multiplicity 1
 O        -2.888301         3.813583         1.533278
 C        -2.019720         2.749589         1.645646
 C        -1.334081         1.954424         0.497936
 C        -0.550040         0.878549         1.345549
 O         0.105030        -0.117080         0.531583
 C        -1.636977         0.487641         2.407284
 C        -1.985114         1.838778         2.786522
 C        -0.739025         2.819310         2.544979
 C         0.391370         1.774323         2.038140
 H        -2.274749         4.510818         1.869714
 H        -2.135800         1.677422        -0.272310
 H        -0.626664         2.664794        -0.030095
 H         0.668433         0.299022        -0.058161
 H        -2.539340        -0.025307         1.999446
 H        -1.274449        -0.063086         3.222262
 H        -2.539658         1.859747         3.675448
 H        -0.677471         3.703202         3.159449
 H         1.095476         2.176090         1.291175
 H         0.982472         1.410897         3.022831
