19
Iteration:  3860
 O        -2.755754         3.838740         1.517574
 C        -1.966958         2.673404         1.649500
 C        -1.429598         1.984237         0.432501
 C        -0.586977         0.979417         1.237345
 O         0.041456        -0.084673         0.498057
 C        -1.552965         0.448280         2.405327
 C        -2.009915         1.836584         2.861174
 C        -0.728231         2.712187         2.695969
 C         0.310471         1.861249         2.071960
 H        -2.553661         4.141486         0.619577
 H        -2.219596         1.550058        -0.174238
 H        -0.769497         2.705283        -0.023633
 H         0.860200        -0.173632         0.913715
 H        -2.296537        -0.243091         1.998746
 H        -0.963723        -0.006634         3.111242
 H        -2.665475         1.949111         3.719940
 H        -0.509041         3.725536         3.085321
 H         0.949769         2.475147         1.501487
 H         0.830422         1.263064         2.863768
