19
Iteration:   367charge 0 multiplicity 1
 O        -2.583733         4.090150         1.530377
 C        -1.965635         2.743397         1.647925
 C        -1.299279         1.976734         0.468666
 C        -0.497745         0.923508         1.141005
 O         0.261788        -0.094973         0.454224
 C        -1.671551         0.370265         2.227147
 C        -2.102567         1.742009         2.811020
 C        -0.969872         2.596111         2.834111
 C         0.179308         1.876502         2.287908
 H        -3.524183         3.878379         1.340226
 H        -2.085624         1.509324        -0.184851
 H        -0.707771         2.648367        -0.263213
 H         0.672386         0.398636        -0.356351
 H        -2.502303        -0.185268         1.731618
 H        -1.266126        -0.352705         2.939635
 H        -2.850663         1.727361         3.587394
 H        -0.651757         3.284400         3.605882
 H         0.966691         2.489281         1.845605
 H         0.711790         1.340912         3.099831
