19
Iteration:  3701
 O        -2.851680         3.835344         1.536839
 C        -2.048535         2.707317         1.682795
 C        -1.390193         1.970286         0.471312
 C        -0.569389         0.867835         1.294567
 O         0.112119        -0.138291         0.551738
 C        -1.618263         0.490477         2.394005
 C        -2.019632         1.877528         2.790814
 C        -0.718728         2.793366         2.534548
 C         0.387974         1.805527         2.016818
 H        -2.437097         4.577833         1.978996
 H        -2.071061         1.449214        -0.242523
 H        -0.496598         2.585475         0.162103
 H         0.832148         0.348385         0.181471
 H        -2.369567        -0.045894         1.848721
 H        -1.099612        -0.091050         3.205627
 H        -2.598783         1.978326         3.723620
 H        -0.700755         3.642359         3.266624
 H         1.294140         2.186430         1.384041
 H         0.861096         1.457944         2.962179
