19
Iteration:  2029
 O        -2.774860         3.982923         1.555661
 C        -1.918729         2.725824         1.664889
 C        -1.366366         1.878601         0.494437
 C        -0.562424         0.824498         1.288503
 O         0.199269        -0.085064         0.514312
 C        -1.626197         0.414313         2.314335
 C        -2.011591         1.845983         2.897831
 C        -0.786701         2.726087         2.619680
 C         0.344981         1.934473         2.116810
 H        -3.535596         3.505806         1.111689
 H        -2.304207         1.340154         0.038133
 H        -0.762317         2.537938        -0.263189
 H        -0.018754        -0.080594        -0.391903
 H        -2.554104        -0.018679         1.812384
 H        -1.204063        -0.264011         3.067082
 H        -2.907349         1.992776         3.543487
 H        -0.641806         3.632896         3.202658
 H         0.763574         2.574197         1.318614
 H         1.183102         1.618140         2.805463
