19
Iteration:  3036
 O        -2.590735         3.925687         1.406535
 C        -2.022565         2.698738         1.650024
 C        -1.444454         2.019536         0.447718
 C        -0.531970         0.973828         1.237184
 O         0.129658        -0.028696         0.396980
 C        -1.559977         0.380050         2.374846
 C        -2.065728         1.804015         2.904387
 C        -0.838105         2.697022         2.708552
 C         0.280046         1.825056         2.215883
 H        -3.506270         4.121076         1.269946
 H        -2.302798         1.505460        -0.194491
 H        -0.754376         2.691849        -0.005292
 H         0.698464        -0.612539         1.003094
 H        -2.343020        -0.206412         1.939115
 H        -0.862056        -0.235276         2.971804
 H        -2.760315         1.829780         3.749296
 H        -0.702026         3.588161         3.335625
 H         1.137388         2.495972         1.817832
 H         0.643036         1.096774         2.893670
