19
Iteration:  1370
 O        -2.797531         3.833531         1.627351
 C        -1.778348         2.725073         1.605530
 C        -1.294409         1.972477         0.395851
 C        -0.560081         0.914570         1.281336
 O         0.065317        -0.050550         0.622419
 C        -1.635068         0.469901         2.267361
 C        -2.052504         1.778735         2.799270
 C        -0.785463         2.701385         2.686435
 C         0.311051         1.849006         2.158615
 H        -2.789954         4.561909         0.991007
 H        -2.126512         1.565563        -0.285522
 H        -0.717912         2.640229        -0.315595
 H         0.071603         0.165137        -0.261648
 H        -2.546601         0.089842         1.798963
 H        -1.259048        -0.203927         3.033716
 H        -2.938536         1.840335         3.390326
 H        -0.657886         3.556805         3.321017
 H         0.854213         2.386832         1.362748
 H         1.039869         1.328101         2.763513
