19
Iteration:   634charge 0 multiplicity 1
 O        -2.743636         3.929147         1.515622
 C        -1.884867         2.768077         1.714444
 C        -1.247112         2.059643         0.507465
 C        -0.483545         0.927325         1.296767
 O         0.098672         0.067580         0.430561
 C        -1.726940         0.375645         2.170429
 C        -2.147072         1.679284         2.732603
 C        -0.853810         2.596698         2.787074
 C         0.329987         1.774491         2.285142
 H        -2.698828         4.520259         0.704551
 H        -1.901897         1.597665        -0.303691
 H        -0.417776         2.680591         0.025430
 H         1.065146         0.370817         0.326276
 H        -2.402013        -0.114830         1.471673
 H        -1.317792        -0.342828         2.914532
 H        -3.023888         1.898131         3.344986
 H        -0.916883         3.269891         3.649439
 H         1.194875         2.216903         1.760034
 H         0.567445         1.181887         3.155048
