19
Iteration:  2796charge 0 multiplicity 1
 O        -2.678466         3.945852         1.410126
 C        -1.879043         2.833904         1.681775
 C        -1.474062         1.964826         0.591400
 C        -0.577503         0.897580         1.275074
 O         0.185880         0.024881         0.418925
 C        -1.583682         0.388858         2.378041
 C        -2.096653         1.771921         2.819897
 C        -0.842166         2.728060         2.689450
 C         0.327780         1.776454         2.099352
 H        -3.434512         3.729437         0.877634
 H        -2.341328         1.516725         0.164097
 H        -0.909178         2.595266        -0.098870
 H         0.361989        -0.805665         0.984405
 H        -2.216751        -0.446434         2.122483
 H        -1.023172        -0.148922         3.172037
 H        -2.771945         1.958785         3.638123
 H        -0.634046         3.645931         3.282091
 H         1.127226         2.194890         1.346539
 H         0.905582         1.300925         2.929684
