19
Iteration:  4512
 O        -3.055205         3.784169         1.528475
 C        -1.846715         2.764126         1.656042
 C        -1.425661         1.851899         0.499403
 C        -0.604351         0.874252         1.274916
 O         0.029982        -0.007825         0.383925
 C        -1.568463         0.464378         2.522570
 C        -1.839865         2.016870         2.938937
 C        -0.563507         2.883529         2.566470
 C         0.403363         1.763349         2.039618
 H        -3.115784         3.846463         0.564997
 H        -2.278938         1.265449         0.127244
 H        -0.900610         2.282887        -0.310300
 H         0.398550        -0.781125         0.990345
 H        -2.567624         0.104418         2.182406
 H        -1.179071        -0.309444         3.224237
 H        -2.684578         2.075599         3.694637
 H        -0.266129         3.803579         3.081635
 H         0.992013         2.068740         1.225549
 H         1.016328         1.209945         2.755741
