19
Iteration:  2176charge 0 multiplicity 1
 O        -2.694256         3.878131         1.463454
 C        -1.962802         2.742899         1.649128
 C        -1.330338         1.874157         0.440631
 C        -0.553446         0.950850         1.298628
 O         0.076311         0.011426         0.430874
 C        -1.557350         0.379503         2.425866
 C        -1.972089         1.799492         2.918353
 C        -0.827224         2.768102         2.675755
 C         0.349162         1.915307         2.106918
 H        -3.607591         3.708939         1.286476
 H        -2.080360         1.315010        -0.195570
 H        -0.799366         2.525821        -0.193195
 H        -0.693795        -0.579479         0.181034
 H        -2.348877        -0.204404         1.965415
 H        -0.972798        -0.253038         3.150172
 H        -2.750566         1.933207         3.743550
 H        -0.866076         3.634683         3.362041
 H         1.022436         2.423795         1.389920
 H         0.918610         1.506238         2.927081
