19
Iteration:   138
 O        -2.641721         3.850242         1.463731
 C        -1.923502         2.691198         1.708575
 C        -1.337427         1.995859         0.447921
 C        -0.534171         0.977785         1.225490
 O         0.087168        -0.058583         0.408271
 C        -1.652985         0.471313         2.284204
 C        -2.056914         1.767312         2.861209
 C        -0.790947         2.711682         2.876780
 C         0.273880         1.851426         2.178380
 H        -3.616484         3.655832         1.448436
 H        -2.140037         1.545464        -0.211405
 H        -0.784352         2.724326        -0.205317
 H         0.811116         0.412942        -0.145613
 H        -2.494349        -0.216557         1.960350
 H        -1.052787        -0.066988         3.075250
 H        -2.918760         1.735217         3.504866
 H        -0.896374         3.574917         3.490302
 H         0.892324         2.532714         1.491444
 H         1.016705         1.234730         2.761279
