19
Iteration:  4058
 O        -2.749281         3.867395         1.535417
 C        -1.951857         2.676501         1.639037
 C        -1.457142         1.849068         0.454236
 C        -0.565343         0.930835         1.243383
 O        -0.032910        -0.145455         0.506684
 C        -1.497836         0.436004         2.411264
 C        -1.983292         1.786685         2.895506
 C        -0.842646         2.811486         2.628925
 C         0.393031         2.018758         2.039435
 H        -2.187321         4.641153         1.284264
 H        -2.355706         1.473601        -0.081442
 H        -0.766438         2.315445        -0.315542
 H         0.901984        -0.277925         0.840302
 H        -2.274939        -0.226209         1.867140
 H        -0.912679        -0.246281         3.156578
 H        -2.753329         2.091308         3.661244
 H        -0.693549         3.759530         3.153482
 H         0.997308         2.628255         1.310124
 H         1.081127         1.570849         2.819941
