19
Iteration:  3252charge 0 multiplicity 1
 O        -2.692451         3.912358         1.511332
 C        -1.965026         2.750947         1.684601
 C        -1.395485         2.052617         0.461995
 C        -0.510662         0.945837         1.269151
 O         0.032758        -0.149601         0.591416
 C        -1.552451         0.370730         2.279093
 C        -2.027285         1.739521         2.808739
 C        -0.801449         2.703889         2.615415
 C         0.309756         1.958490         2.109878
 H        -3.670370         3.910964         1.591198
 H        -1.995511         1.477452        -0.212559
 H        -0.874712         2.836408        -0.089042
 H         0.889798        -0.041093         0.262534
 H        -2.281277        -0.367623         1.804258
 H        -1.147763        -0.231730         3.181764
 H        -2.714007         1.888299         3.616226
 H        -0.612463         3.540200         3.263430
 H         0.969344         2.525454         1.519625
 H         0.976026         1.392217         2.784006
