19
Iteration:  4733
 O        -2.752142         3.766191         1.371118
 C        -1.861385         2.759635         1.736762
 C        -1.624252         1.760651         0.601107
 C        -0.655319         0.885737         1.318095
 O         0.156395         0.123496         0.397873
 C        -1.577339         0.462458         2.518094
 C        -1.892006         1.842515         2.926296
 C        -0.673197         2.823042         2.537053
 C         0.294905         1.863357         1.959203
 H        -2.399715         4.683802         1.424022
 H        -2.493736         1.211978         0.350491
 H        -1.246520         2.202089        -0.303935
 H         0.212920        -0.712424         0.985017
 H        -2.555857        -0.059108         2.225603
 H        -1.170275        -0.195879         3.238951
 H        -2.724047         1.912066         3.670848
 H        -0.524208         3.592942         3.336276
 H         0.895232         2.330506         1.099030
 H         1.078250         1.434950         2.610998
