19
Iteration:  1678charge 0 multiplicity 1
 O        -2.730274         3.757448         1.356534
 C        -1.861062         2.691920         1.690242
 C        -1.286084         2.052389         0.486481
 C        -0.579645         0.993770         1.257590
 O         0.042817         0.053602         0.446886
 C        -1.644494         0.440067         2.425827
 C        -2.079655         1.817327         2.866613
 C        -0.724918         2.628745         2.858519
 C         0.304651         1.825108         2.139017
 H        -2.489136         3.924464         0.417739
 H        -2.098957         1.756664        -0.213970
 H        -0.570486         2.774687        -0.030582
 H        -0.530400        -0.185161        -0.379623
 H        -2.561467        -0.173676         2.133532
 H        -0.968897        -0.020385         3.169918
 H        -2.903166         1.950044         3.565396
 H        -0.559239         3.479377         3.554966
 H         0.963066         2.371173         1.445735
 H         0.847680         1.153160         2.906249
