19
Iteration:   242
 O        -2.469398         4.076061         1.548521
 C        -1.991081         2.808828         1.738936
 C        -1.474168         1.910362         0.464435
 C        -0.483676         0.918819         1.223414
 O         0.277373        -0.015959         0.363987
 C        -1.634066         0.356165         2.230782
 C        -2.247293         1.653607         2.815912
 C        -0.957547         2.617385         2.760680
 C         0.296522         1.950142         2.193924
 H        -3.257962         4.076539         0.988903
 H        -2.392196         1.313883         0.204278
 H        -1.090495         2.526210        -0.364308
 H         0.840586        -0.542675         0.974262
 H        -2.426586        -0.247143         1.760891
 H        -1.163399        -0.264772         3.025531
 H        -2.738606         1.581468         3.758953
 H        -0.926062         3.424931         3.475714
 H         0.942023         2.531023         1.553560
 H         0.866737         1.466168         2.989580
