19
Iteration:   714charge 0 multiplicity 1
 O        -2.678669         3.893987         1.634049
 C        -1.933748         2.770178         1.574669
 C        -1.250999         2.142984         0.390544
 C        -0.498970         0.966152         1.196509
 O         0.261659        -0.147883         0.677888
 C        -1.735812         0.430025         2.100188
 C        -2.081834         1.747001         2.733341
 C        -0.891758         2.620183         2.777120
 C         0.180031         1.832672         2.196203
 H        -2.921367         4.253416         2.538230
 H        -1.951956         1.672194        -0.250926
 H        -0.583667         2.752036        -0.225543
 H         0.621018         0.111516        -0.232365
 H        -2.638395         0.179383         1.545225
 H        -1.416836        -0.405579         2.749830
 H        -3.011554         1.799027         3.263773
 H        -0.886481         3.375445         3.560106
 H         0.909627         2.446594         1.748757
 H         0.789637         1.163829         2.805554
