19
Iteration:  2972charge 0 multiplicity 1
 O        -2.737999         3.907374         1.588600
 C        -2.015374         2.731755         1.580982
 C        -1.280307         2.016181         0.417996
 C        -0.546599         1.006120         1.210709
 O         0.064538        -0.114943         0.551611
 C        -1.595927         0.455010         2.221840
 C        -1.974290         1.782162         2.826491
 C        -0.825031         2.731132         2.688804
 C         0.311811         1.838392         2.171731
 H        -3.622672         3.631593         1.277556
 H        -2.046003         1.617464        -0.252407
 H        -0.669863         2.662375        -0.214764
 H         0.536883        -0.669827         1.292457
 H        -2.524702        -0.090864         1.947852
 H        -0.967146        -0.197256         2.992097
 H        -2.705425         1.973382         3.605995
 H        -0.495074         3.574541         3.283607
 H         1.201891         2.366294         1.617051
 H         0.848513         1.130419         2.891895
