19
Iteration:  3545
 O        -2.773964         3.721507         1.422972
 C        -1.968579         2.697670         1.689449
 C        -1.306258         1.990286         0.534164
 C        -0.574944         0.918686         1.248110
 O         0.039759        -0.032052         0.427669
 C        -1.627575         0.433295         2.366498
 C        -2.012703         1.831833         2.899338
 C        -0.775714         2.750537         2.693823
 C         0.352028         1.946242         2.044611
 H        -2.410729         4.584269         1.763728
 H        -1.972129         1.617446        -0.238053
 H        -0.639530         2.681299        -0.100953
 H         0.444886        -0.644440         1.060051
 H        -2.512664        -0.178233         2.151034
 H        -0.993616        -0.077727         3.138331
 H        -2.706867         2.086811         3.678664
 H        -0.768537         3.550045         3.456999
 H         0.906873         2.431208         1.123986
 H         1.030263         1.489121         2.744723
