19
Iteration:  2510charge 0 multiplicity 1
 O        -2.684434         3.924016         1.554874
 C        -1.853234         2.755292         1.549173
 C        -1.464205         1.940308         0.446298
 C        -0.635989         0.931889         1.247508
 O         0.109585        -0.082779         0.638105
 C        -1.620180         0.405492         2.336208
 C        -1.943543         1.795540         2.853871
 C        -0.789809         2.718418         2.662960
 C         0.334029         1.841208         2.092432
 H        -3.543321         3.601552         1.148150
 H        -2.313996         1.399454         0.040061
 H        -1.235980         2.559562        -0.524255
 H         0.782208         0.399225         0.034981
 H        -2.376071        -0.276307         1.963899
 H        -0.986885        -0.044770         3.113974
 H        -2.778509         2.042891         3.480410
 H        -0.746297         3.583763         3.347966
 H         0.764451         2.611514         1.421934
 H         0.988073         1.403302         2.743752
