19
Iteration:  3079charge 0 multiplicity 1
 O        -2.661410         3.876220         1.514948
 C        -1.818617         2.706015         1.633807
 C        -1.353233         1.948260         0.450701
 C        -0.571166         0.982707         1.291211
 O         0.012842         0.040158         0.487747
 C        -1.665096         0.361984         2.329233
 C        -2.043545         1.802496         2.739918
 C        -0.825163         2.625456         2.823016
 C         0.359976         1.942518         2.126372
 H        -3.244632         3.618954         0.790283
 H        -2.246092         1.306583         0.098972
 H        -0.781162         2.404078        -0.335187
 H         0.861804        -0.193263         1.040841
 H        -2.421920        -0.126730         1.765365
 H        -1.345979        -0.169894         3.150422
 H        -2.982183         2.062540         3.229892
 H        -0.549699         3.440551         3.500438
 H         0.787960         2.552887         1.315483
 H         0.977430         1.414706         2.782378
