19
Iteration:   740
 O        -2.722713         3.913412         1.523537
 C        -1.880484         2.811114         1.681133
 C        -1.264425         2.109918         0.448801
 C        -0.493025         1.000465         1.191161
 O         0.153283        -0.060672         0.654976
 C        -1.673571         0.383974         2.121294
 C        -2.173826         1.704311         2.667380
 C        -0.801974         2.670054         2.742559
 C         0.313815         1.761647         2.277466
 H        -3.485026         3.960166         2.177531
 H        -2.172202         1.899449        -0.183489
 H        -0.610299         2.758544        -0.099886
 H         0.387872         0.044814        -0.324859
 H        -2.505421        -0.188523         1.556093
 H        -1.293950        -0.353654         2.839745
 H        -3.028983         1.769799         3.362586
 H        -0.841856         3.278450         3.648246
 H         1.198565         2.308534         1.826905
 H         0.825659         0.984453         2.896552
