19
Iteration:   650charge 0 multiplicity 1
 O        -2.640506         3.830502         1.461467
 C        -1.937970         2.728060         1.684869
 C        -1.259543         2.125629         0.475785
 C        -0.577268         0.983991         1.276414
 O         0.128930         0.028739         0.311828
 C        -1.625951         0.367705         2.190752
 C        -2.139379         1.764503         2.774297
 C        -0.942938         2.624749         2.850064
 C         0.234680         1.755323         2.414482
 H        -2.162828         4.367363         0.769405
 H        -2.003468         1.788066        -0.193251
 H        -0.604599         2.797590        -0.011398
 H         1.105428         0.380766         0.239293
 H        -2.535347        -0.209543         1.877130
 H        -1.264809        -0.294885         2.979170
 H        -2.855873         1.732675         3.589300
 H        -0.641353         3.467353         3.466472
 H         0.962854         2.466714         2.008681
 H         0.831474         0.953340         3.009440
