19
Iteration:  4941charge 0 multiplicity 1
 O        -2.856247         3.636336         1.674562
 C        -1.765533         2.813849         1.534716
 C        -1.416661         1.845156         0.401660
 C        -0.570064         0.854060         1.327268
 O         0.052773        -0.011571         0.420691
 C        -1.689134         0.528282         2.450983
 C        -1.863179         1.952183         2.904563
 C        -0.693067         2.847321         2.512870
 C         0.301137         1.861833         2.107962
 H        -2.926092         4.255853         0.946806
 H        -2.328799         1.404770         0.041499
 H        -1.030813         2.416909        -0.445193
 H         0.489720        -0.726561         0.911804
 H        -2.670179         0.028226         2.122270
 H        -1.277310        -0.127971         3.174396
 H        -2.739623         2.256949         3.394703
 H        -0.563855         3.729168         3.126958
 H         1.107697         2.215333         1.449891
 H         0.828009         1.515601         2.984417
