19
Iteration:  1190
 O        -2.574751         4.019366         1.527622
 C        -1.941918         2.727122         1.637846
 C        -1.558982         1.913527         0.440397
 C        -0.558443         0.947133         1.256338
 O         0.237795        -0.079765         0.575428
 C        -1.557565         0.440939         2.313006
 C        -2.103530         1.759819         2.801003
 C        -0.830912         2.679441         2.721336
 C         0.289894         1.861733         2.118796
 H        -3.575400         3.940103         1.471567
 H        -2.444392         1.236385         0.032251
 H        -1.073589         2.598249        -0.286304
 H         0.169311         0.082591        -0.426039
 H        -2.355679        -0.125166         1.833894
 H        -1.036301        -0.250028         2.997720
 H        -2.689651         1.801004         3.697432
 H        -0.764949         3.504268         3.415375
 H         1.021505         2.383525         1.467142
 H         0.964760         1.244185         2.800431
