19
Iteration:  4833charge 0 multiplicity 1
 O        -2.905082         3.769443         1.427524
 C        -1.929365         2.773701         1.710200
 C        -1.612234         1.906253         0.524164
 C        -0.661004         0.892947         1.288979
 O         0.143306        -0.040329         0.421577
 C        -1.527818         0.425752         2.441917
 C        -1.850327         1.903121         2.901678
 C        -0.620491         2.856977         2.490668
 C         0.330058         1.827800         2.114182
 H        -2.402700         4.621158         1.352512
 H        -2.582987         1.500646         0.332510
 H        -1.182149         2.306397        -0.372710
 H         0.855815        -0.378450         1.081179
 H        -2.486838        -0.146782         2.198569
 H        -0.894012        -0.109558         3.109785
 H        -2.552517         1.825486         3.698914
 H        -0.329968         3.566236         3.218326
 H         1.060364         2.162296         1.261029
 H         0.823367         1.348342         2.972940
