19
Iteration:  3028
 O        -2.601881         3.923194         1.427938
 C        -1.928636         2.714807         1.642447
 C        -1.453781         1.956322         0.408145
 C        -0.551080         0.979387         1.224313
 O         0.133990         0.025147         0.464936
 C        -1.592366         0.425622         2.332007
 C        -2.066597         1.784873         2.912275
 C        -0.864831         2.659700         2.711002
 C         0.300011         1.843977         2.188629
 H        -3.556851         3.761262         1.494861
 H        -2.225137         1.659103        -0.321033
 H        -0.790804         2.658682        -0.174224
 H         0.566530        -0.635261         1.032206
 H        -2.440837        -0.168419         1.890142
 H        -1.057037        -0.282908         3.135325
 H        -2.661389         1.912594         3.799975
 H        -0.680560         3.480508         3.418100
 H         1.109208         2.362560         1.553597
 H         0.789507         1.111493         2.960494
