19
Iteration:  2037
 O        -2.726753         3.963578         1.458573
 C        -1.964189         2.694513         1.717167
 C        -1.368706         1.857923         0.533792
 C        -0.570452         0.934644         1.311475
 O         0.168004        -0.079724         0.455312
 C        -1.607542         0.420963         2.382956
 C        -1.965203         1.778403         2.903592
 C        -0.821805         2.766478         2.680303
 C         0.321368         1.910726         2.079903
 H        -3.548941         3.812896         0.911859
 H        -2.178785         1.330125        -0.179863
 H        -0.707810         2.531447        -0.122162
 H        -0.169190         0.053045        -0.379269
 H        -2.333145        -0.094928         1.762568
 H        -1.221014        -0.354901         3.067309
 H        -2.783549         1.962386         3.610837
 H        -0.748126         3.614876         3.383189
 H         0.957183         2.460933         1.330255
 H         1.074374         1.579741         2.802755
