19
Iteration:   413charge 0 multiplicity 1
 O        -2.630431         3.926079         1.464631
 C        -1.837126         2.739895         1.679956
 C        -1.353733         2.038169         0.478019
 C        -0.553545         0.933141         1.278731
 O         0.113740         0.055002         0.438695
 C        -1.666356         0.384723         2.231314
 C        -2.142597         1.692222         2.778900
 C        -0.903167         2.638984         2.893587
 C         0.285240         1.814389         2.218013
 H        -2.895962         3.923067         0.505047
 H        -2.024037         1.497728        -0.265145
 H        -0.510748         2.552259        -0.030619
 H         0.945749         0.561180         0.182235
 H        -2.413255        -0.243680         1.636849
 H        -1.288071        -0.331026         2.965890
 H        -2.875694         1.765266         3.566588
 H        -0.910569         3.340537         3.706621
 H         1.072152         2.498194         1.758809
 H         0.894567         1.244064         2.932575
