19
Iteration:   199
 O        -2.726287         3.824240         1.617127
 C        -1.748557         2.782593         1.659635
 C        -1.359260         2.086800         0.387873
 C        -0.578901         0.966035         1.218966
 O         0.228908        -0.039723         0.496356
 C        -1.687691         0.469671         2.244849
 C        -2.119393         1.777515         2.766555
 C        -0.827404         2.673668         2.745630
 C         0.288020         1.831578         2.161896
 H        -3.577431         3.371173         1.469659
 H        -2.072574         1.701403        -0.296699
 H        -0.548724         2.639244        -0.071227
 H        -0.349012        -0.849978         0.611841
 H        -2.375630        -0.112351         1.677488
 H        -1.264750        -0.103523         3.080910
 H        -2.841679         1.908448         3.553830
 H        -0.664165         3.541694         3.377520
 H         0.971228         2.532868         1.782638
 H         0.764724         1.171739         2.883072
