19
Iteration:  3568charge 0 multiplicity 1
 O        -2.827460         3.908115         1.422769
 C        -1.892291         2.841592         1.648286
 C        -1.464900         1.990076         0.451230
 C        -0.531302         0.887302         1.269805
 O         0.043858        -0.140616         0.531488
 C        -1.502964         0.382215         2.303669
 C        -1.944189         1.786124         2.878513
 C        -0.763107         2.699483         2.681878
 C         0.313423         1.914595         2.100688
 H        -3.181018         4.267688         2.244484
 H        -2.300425         1.567992        -0.087509
 H        -0.861979         2.488200        -0.428808
 H         0.876130        -0.396571         0.949792
 H        -2.282534        -0.110412         1.723811
 H        -1.120553        -0.316421         3.068086
 H        -2.679348         1.933546         3.625815
 H        -0.664791         3.592218         3.265208
 H         1.023760         2.654406         1.509847
 H         0.822594         1.420652         2.954258
