19
Iteration:  1117charge 0 multiplicity 1
 O        -2.772488         3.834691         1.599823
 C        -1.837497         2.788028         1.662561
 C        -1.343973         2.067417         0.330605
 C        -0.555810         0.952446         1.193397
 O         0.005386        -0.218020         0.559993
 C        -1.550527         0.444653         2.200230
 C        -1.960031         1.867052         2.812664
 C        -0.835407         2.784186         2.801724
 C         0.293119         1.841585         2.174158
 H        -3.527504         3.460803         1.139932
 H        -2.138172         1.659512        -0.279199
 H        -0.623561         2.583806        -0.266684
 H         1.009531        -0.213224         0.755573
 H        -2.445145         0.023529         1.739146
 H        -1.232320        -0.283609         3.017299
 H        -2.817030         1.913180         3.420793
 H        -0.726542         3.604349         3.507384
 H         0.967717         2.546223         1.639057
 H         0.960103         1.293566         2.780192
