19
Iteration:  2110charge 0 multiplicity 1
 O        -2.698167         3.900042         1.627617
 C        -1.965337         2.704151         1.626413
 C        -1.438761         1.949324         0.414672
 C        -0.573725         0.906274         1.316320
 O         0.255215        -0.030056         0.619782
 C        -1.698759         0.356077         2.296860
 C        -1.987462         1.832297         2.852251
 C        -0.791653         2.829570         2.583908
 C         0.376285         1.899321         2.006702
 H        -3.676569         3.679587         1.574014
 H        -2.084710         1.408032        -0.277507
 H        -0.792252         2.578421        -0.124641
 H        -0.376863        -0.644116         0.121935
 H        -2.604003        -0.060357         1.838588
 H        -1.330785        -0.368622         3.054785
 H        -2.821214         1.916126         3.570477
 H        -0.600531         3.698023         3.242615
 H         1.086000         2.233642         1.233703
 H         0.929819         1.324165         2.761271
