19
Iteration:  1141
 O        -2.790970         3.917139         1.410782
 C        -1.925771         2.748786         1.686346
 C        -1.305096         2.014187         0.569923
 C        -0.489365         0.923657         1.350007
 O        -0.047861        -0.051387         0.430920
 C        -1.628184         0.392722         2.254094
 C        -2.031816         1.824844         2.857501
 C        -0.771827         2.679110         2.631501
 C         0.402910         1.841744         2.171536
 H        -3.657914         3.520826         1.312361
 H        -1.944766         1.509483        -0.053447
 H        -0.566643         2.581068        -0.008189
 H         0.862779         0.063895         0.265518
 H        -2.382842        -0.263577         1.741414
 H        -1.237863        -0.159239         3.142025
 H        -2.568150         1.954823         3.824786
 H        -0.609170         3.417227         3.441811
 H         1.217645         2.436147         1.693226
 H         0.964296         1.390659         3.025700
