19
Iteration:  4001
 O        -2.747890         3.892555         1.439423
 C        -1.969910         2.754562         1.684276
 C        -1.473076         1.917133         0.517669
 C        -0.587465         0.849845         1.263021
 O         0.155987         0.022064         0.430889
 C        -1.579209         0.429189         2.461681
 C        -1.893622         1.814904         2.887206
 C        -0.724465         2.814920         2.576850
 C         0.252402         1.819872         2.085090
 H        -3.554030         3.576509         0.976980
 H        -2.399662         1.565212        -0.033091
 H        -0.810571         2.551335        -0.118019
 H         0.197343        -0.805571         0.867496
 H        -2.489816        -0.156565         2.055862
 H        -1.070357        -0.187189         3.325884
 H        -2.402410         2.068663         3.805679
 H        -0.415697         3.659177         3.191557
 H         1.059619         2.255377         1.405844
 H         0.738732         1.442125         2.990466
