19
Iteration:  3575
 O        -2.793091         3.919354         1.454201
 C        -1.914277         2.823780         1.624853
 C        -1.479538         1.947797         0.488631
 C        -0.508437         0.943013         1.253001
 O         0.042267        -0.133324         0.557319
 C        -1.513199         0.440917         2.237109
 C        -1.961594         1.816932         2.826815
 C        -0.801697         2.693989         2.671007
 C         0.360848         1.878300         2.127472
 H        -3.358233         4.036063         2.223458
 H        -2.359465         1.365323         0.086397
 H        -1.077771         2.380558        -0.419237
 H         0.991344        -0.239310         0.955427
 H        -2.357413        -0.268363         1.923120
 H        -0.976468        -0.225843         2.977065
 H        -2.660812         2.020949         3.659072
 H        -0.603034         3.525957         3.399459
 H         1.034513         2.361535         1.475296
 H         0.866909         1.333808         2.889315
