19
Iteration:   485
 O        -2.675258         3.922082         1.545827
 C        -1.856803         2.781736         1.699492
 C        -1.276807         2.022501         0.434797
 C        -0.511070         0.932706         1.231904
 O         0.215503        -0.107888         0.535620
 C        -1.663193         0.416146         2.143546
 C        -2.171137         1.765926         2.675322
 C        -0.910687         2.645316         2.822648
 C         0.244664         1.864653         2.244472
 H        -3.416142         3.998829         2.217629
 H        -2.062753         1.760677        -0.233727
 H        -0.554181         2.716133        -0.085359
 H         0.794287         0.350532        -0.117580
 H        -2.467293         0.066412         1.523937
 H        -1.580045        -0.406632         2.890242
 H        -2.973430         1.903697         3.363664
 H        -0.869621         3.323367         3.661804
 H         1.042574         2.330636         1.672685
 H         0.864157         1.179193         2.888524
