19
Iteration:   491
 O        -2.675295         3.965522         1.487192
 C        -1.899705         2.766221         1.722323
 C        -1.277866         2.048416         0.530744
 C        -0.540587         0.913301         1.236886
 O         0.233788        -0.104635         0.509212
 C        -1.657851         0.405065         2.134763
 C        -2.169598         1.710503         2.694152
 C        -0.881768         2.664829         2.764439
 C         0.269504         1.835722         2.276323
 H        -3.383368         4.171145         2.122044
 H        -2.165045         1.831252        -0.127213
 H        -0.549226         2.562636        -0.087922
 H         0.759078         0.495157        -0.125392
 H        -2.503113         0.042584         1.488861
 H        -1.436908        -0.353936         2.892033
 H        -2.991146         1.866832         3.417399
 H        -0.867292         3.237739         3.699153
 H         0.953714         2.461965         1.641126
 H         0.824160         1.178285         2.931286
