19
Iteration:   114
 O        -2.578251         4.059290         1.615289
 C        -1.925135         2.822728         1.621043
 C        -1.525024         1.930838         0.498192
 C        -0.538543         0.935730         1.329033
 O         0.170867         0.001518         0.471413
 C        -1.536597         0.301315         2.308251
 C        -2.123302         1.674683         2.722788
 C        -0.853154         2.621908         2.649616
 C         0.272373         1.905976         2.073618
 H        -3.541671         3.970134         1.369344
 H        -2.388209         1.345779         0.131273
 H        -0.980876         2.289585        -0.421806
 H         1.078948        -0.049690         0.853676
 H        -2.247155        -0.337406         1.788721
 H        -0.977921        -0.340560         3.070395
 H        -2.870274         1.916760         3.468448
 H        -0.877969         3.254572         3.549104
 H         0.924057         2.579961         1.504899
 H         0.832429         1.488978         2.975837
