19
Iteration:  2398
 O        -2.773392         3.823808         1.524697
 C        -1.932349         2.745754         1.645323
 C        -1.377457         1.986273         0.487441
 C        -0.591104         0.876810         1.307935
 O         0.091490        -0.123504         0.615690
 C        -1.613047         0.450709         2.329914
 C        -1.901231         1.841333         2.855790
 C        -0.737048         2.801267         2.599370
 C         0.308109         1.889772         2.031774
 H        -3.696235         3.645095         1.567055
 H        -2.201969         1.363810        -0.074461
 H        -0.889951         2.753980        -0.331705
 H         0.575800         0.178839        -0.163510
 H        -2.531065         0.013479         1.960685
 H        -1.203749        -0.373020         2.956210
 H        -2.747549         1.929861         3.588481
 H        -0.475874         3.761047         3.067139
 H         1.059843         2.323004         1.352641
 H         0.828878         1.493002         2.859747
