19
Iteration:   379charge 0 multiplicity 1
 O        -2.524548         4.023839         1.487239
 C        -1.934658         2.790414         1.673817
 C        -1.429542         1.941009         0.426979
 C        -0.550309         0.965964         1.321404
 O         0.216970        -0.012879         0.398300
 C        -1.613125         0.366506         2.213738
 C        -2.149523         1.651513         2.780896
 C        -0.926520         2.647778         2.834410
 C         0.270876         1.839847         2.332471
 H        -3.292908         4.004056         0.846727
 H        -2.273026         1.432383        -0.129645
 H        -0.728704         2.538487        -0.236172
 H         0.656089         0.549696        -0.266221
 H        -2.342746        -0.213905         1.578917
 H        -1.240038        -0.186596         3.068427
 H        -2.888824         1.701846         3.543846
 H        -0.986602         3.383842         3.614079
 H         1.049378         2.550554         1.961357
 H         0.646810         1.031630         2.959626
