19
Iteration:  2096
 O        -2.713131         3.950778         1.529980
 C        -1.918502         2.780766         1.649979
 C        -1.423140         1.871372         0.507259
 C        -0.539500         0.894722         1.291378
 O         0.207853        -0.041912         0.496167
 C        -1.629720         0.439401         2.377678
 C        -2.043651         1.769812         2.835002
 C        -0.792887         2.690521         2.600776
 C         0.341355         1.911052         2.118248
 H        -3.606719         3.697052         1.332875
 H        -2.365351         1.312181        -0.002063
 H        -0.807660         2.424776        -0.300922
 H        -0.381961        -0.383495        -0.217632
 H        -2.381874        -0.165414         1.814508
 H        -1.134236        -0.149381         3.149082
 H        -2.560395         2.103725         3.710705
 H        -0.731678         3.547686         3.250367
 H         0.831885         2.579848         1.416421
 H         0.981952         1.603156         2.979345
