19
Iteration:   320
 O        -2.821520         3.834029         1.594482
 C        -1.788872         2.862128         1.673873
 C        -1.221717         2.111070         0.353714
 C        -0.496090         1.031007         1.205872
 O         0.062008        -0.183924         0.601355
 C        -1.703580         0.478036         2.056373
 C        -2.039101         1.783081         2.772167
 C        -0.866017         2.656605         2.805660
 C         0.343046         1.799213         2.272964
 H        -3.600451         3.397406         1.920680
 H        -2.003387         1.568957        -0.197528
 H        -0.610723         2.724872        -0.381394
 H         0.866767         0.126007         0.217406
 H        -2.466740         0.043888         1.446812
 H        -1.262589        -0.322473         2.694819
 H        -2.967808         1.955102         3.373454
 H        -0.805423         3.411339         3.616417
 H         1.038157         2.373661         1.732939
 H         0.906758         1.067373         2.871779
