19
Iteration:  2551
 O        -2.769803         3.853544         1.411971
 C        -1.902496         2.793008         1.622299
 C        -1.354031         2.036807         0.504786
 C        -0.493759         0.930650         1.317241
 O         0.046000        -0.101947         0.509057
 C        -1.589505         0.375840         2.383924
 C        -1.966259         1.813554         2.819461
 C        -0.835337         2.753927         2.672582
 C         0.408194         1.868879         2.162451
 H        -3.607179         3.629391         1.859910
 H        -2.054244         1.531232        -0.263437
 H        -0.703441         2.635575        -0.171185
 H        -0.554314        -0.352338        -0.141662
 H        -2.493582        -0.000524         1.931750
 H        -1.052224        -0.309351         3.063047
 H        -2.723465         2.088851         3.517320
 H        -0.792946         3.578677         3.392178
 H         1.056087         2.289373         1.350427
 H         0.986647         1.413469         3.042448
