19
Iteration:   621charge 0 multiplicity 1
 O        -2.809374         3.921886         1.641638
 C        -1.853548         2.886532         1.609965
 C        -1.207812         2.027953         0.491765
 C        -0.577028         0.983751         1.314980
 O         0.150462        -0.033659         0.538081
 C        -1.699570         0.339794         2.036988
 C        -2.175828         1.731232         2.675913
 C        -0.857694         2.625596         2.823837
 C         0.345722         1.772773         2.255055
 H        -2.661946         4.294756         0.772024
 H        -2.072506         1.570060        -0.159087
 H        -0.470632         2.570553        -0.195487
 H         1.022788         0.282067         0.375296
 H        -2.479729        -0.070923         1.332122
 H        -1.474374        -0.397530         2.794658
 H        -2.873871         1.727247         3.472981
 H        -0.555087         3.248127         3.657467
 H         1.148198         2.447758         1.806320
 H         0.934708         1.106652         2.886075
