19
Iteration:  1392charge 0 multiplicity 1
 O        -2.867966         3.819580         1.461422
 C        -1.832811         2.827942         1.693171
 C        -1.282955         2.033995         0.522933
 C        -0.542189         0.887972         1.288295
 O         0.055237        -0.086707         0.435607
 C        -1.622112         0.375433         2.336234
 C        -2.045721         1.853727         2.792763
 C        -0.741988         2.738868         2.766504
 C         0.343503         1.832399         2.206374
 H        -2.766211         4.086924         0.523625
 H        -2.078900         1.767455        -0.270603
 H        -0.645151         2.661795        -0.162332
 H        -0.404711        -0.036420        -0.494304
 H        -2.318274        -0.338324         1.889896
 H        -1.094293        -0.026458         3.195799
 H        -2.592311         2.132901         3.669153
 H        -0.649876         3.471643         3.563941
 H         1.215683         2.328029         1.734182
 H         0.700656         1.020065         2.840393
