19
Iteration:   277charge 0 multiplicity 1
 O        -2.649583         3.929568         1.477034
 C        -1.850082         2.745254         1.633022
 C        -1.276422         2.032623         0.450751
 C        -0.604290         0.949392         1.327471
 O         0.034044         0.156001         0.457495
 C        -1.625997         0.360697         2.278661
 C        -2.142358         1.673842         2.809510
 C        -0.858179         2.621410         2.763387
 C         0.333256         1.756515         2.202182
 H        -3.364317         3.796230         0.873687
 H        -2.022400         1.636444        -0.211430
 H        -0.594147         2.538714        -0.282643
 H         0.984836         0.184323         0.566443
 H        -2.367093        -0.218845         1.793604
 H        -1.131028        -0.312299         3.021317
 H        -2.821524         1.702669         3.689423
 H        -0.740481         3.495746         3.431303
 H         1.030507         2.337888         1.686179
 H         0.834647         1.201054         3.010241
