19
Iteration:  4671charge 0 multiplicity 1
 O        -2.903498         3.750690         1.493502
 C        -1.820256         2.801859         1.591701
 C        -1.482470         1.977834         0.393763
 C        -0.681715         0.965880         1.181625
 O        -0.102462        -0.194054         0.575101
 C        -1.363086         0.445341         2.536685
 C        -1.889501         1.806004         2.861224
 C        -0.719589         2.762874         2.630129
 C         0.421774         1.984531         1.966000
 H        -2.876831         4.439617         2.175575
 H        -2.437718         1.787704        -0.189362
 H        -0.718070         2.376165        -0.345264
 H         0.564614        -0.648807         1.204929
 H        -2.184780        -0.234689         2.212458
 H        -0.642239         0.008993         3.289618
 H        -2.821585         2.115721         3.415587
 H        -0.773505         3.652928         3.289764
 H         1.069736         2.645088         1.348575
 H         0.996961         1.410810         2.668833
