19
Iteration:  2379
 O        -2.692700         3.859646         1.602008
 C        -1.875970         2.714072         1.601465
 C        -1.547243         1.864937         0.405331
 C        -0.573739         1.011050         1.214448
 O         0.028951        -0.140937         0.623773
 C        -1.552841         0.480563         2.331378
 C        -2.029140         1.809297         2.815757
 C        -0.795396         2.774927         2.641894
 C         0.415688         1.940044         2.050996
 H        -3.591510         3.692808         1.322611
 H        -2.326022         1.326907         0.010778
 H        -0.816096         2.283682        -0.300246
 H         1.014925         0.021717         0.547615
 H        -2.307283        -0.179195         1.742087
 H        -1.064795        -0.220153         3.054024
 H        -2.648473         2.146106         3.651867
 H        -0.712119         3.547994         3.382944
 H         1.145688         2.674324         1.532676
 H         1.100225         1.467353         2.821318
