19
Iteration:  4828
 O        -2.928360         3.733887         1.458295
 C        -1.885054         2.778046         1.697305
 C        -1.585242         1.916034         0.510935
 C        -0.678310         0.917438         1.246814
 O         0.150255        -0.072814         0.463380
 C        -1.532755         0.464051         2.421765
 C        -1.847835         1.930958         2.920784
 C        -0.625387         2.848359         2.534010
 C         0.289089         1.826721         2.073583
 H        -2.530839         4.565218         1.200440
 H        -2.555662         1.422666         0.168390
 H        -1.138640         2.462148        -0.373585
 H         0.832517        -0.352491         1.006833
 H        -2.351061        -0.124772         2.062027
 H        -1.017804        -0.257486         3.154496
 H        -2.512181         1.909270         3.839574
 H        -0.148524         3.626768         3.207134
 H         1.019405         2.132044         1.401495
 H         0.902613         1.259758         2.827786
