19
Iteration:  1925charge 0 multiplicity 1
 O        -2.654888         3.874784         1.412640
 C        -1.932652         2.741282         1.671425
 C        -1.479838         1.924272         0.484726
 C        -0.587330         0.980168         1.270112
 O         0.016465         0.002020         0.351271
 C        -1.527380         0.437540         2.380310
 C        -1.977410         1.801970         2.885768
 C        -0.810109         2.712540         2.736024
 C         0.331811         1.841087         2.203872
 H        -3.196922         3.606900         0.621224
 H        -2.312442         1.364314        -0.085904
 H        -1.040868         2.477882        -0.304596
 H         0.873128        -0.277263         0.945456
 H        -2.266422        -0.280393         2.165103
 H        -0.784362        -0.038316         3.066335
 H        -2.827977         1.864704         3.612066
 H        -0.595484         3.573714         3.454131
 H         1.128839         2.389331         1.689510
 H         0.704236         1.430449         3.130063
