19
Iteration:  2234charge 0 multiplicity 1
 O        -2.720410         3.978139         1.555723
 C        -1.886271         2.814607         1.647631
 C        -1.589510         1.871160         0.447112
 C        -0.528321         0.869550         1.285585
 O         0.191776        -0.101190         0.635633
 C        -1.587109         0.395983         2.322435
 C        -1.931065         1.780652         2.809027
 C        -0.819541         2.685369         2.654193
 C         0.365569         1.986718         2.051992
 H        -3.672990         3.781647         1.280150
 H        -2.416714         1.354902         0.080276
 H        -1.066142         2.420826        -0.373222
 H        -0.232713        -0.260117        -0.264983
 H        -2.286779        -0.225708         1.699353
 H        -1.173611        -0.388306         3.047231
 H        -2.654934         1.960416         3.565520
 H        -0.774979         3.601891         3.218648
 H         1.028261         2.601149         1.278836
 H         1.110211         1.677246         2.912983
