19
Iteration:  4846
 O        -2.818737         3.858550         1.412413
 C        -1.931285         2.760754         1.639903
 C        -1.630204         1.773044         0.559534
 C        -0.569565         0.860039         1.297985
 O         0.066186         0.051032         0.402476
 C        -1.499645         0.411405         2.502981
 C        -1.912605         1.826644         2.891317
 C        -0.756718         2.840555         2.563544
 C         0.410563         1.859888         2.023478
 H        -2.361344         4.667187         1.649000
 H        -2.439563         1.136331         0.174286
 H        -1.194341         2.303330        -0.289881
 H         0.698373        -0.494098         0.804464
 H        -2.364255        -0.248515         2.278036
 H        -1.000259        -0.085902         3.370842
 H        -2.428870         2.232285         3.698586
 H        -0.701388         3.711580         3.212997
 H         1.341347         2.247641         1.496777
 H         0.830037         1.390606         2.918135
