19
Iteration:  1861
 O        -2.699997         3.868445         1.584753
 C        -1.848320         2.763537         1.653980
 C        -1.458818         2.007572         0.373521
 C        -0.552271         0.971381         1.234878
 O         0.160516        -0.210364         0.716784
 C        -1.588049         0.505295         2.225277
 C        -2.014500         1.804121         2.858867
 C        -0.828072         2.702696         2.696760
 C         0.326766         1.963295         2.022620
 H        -3.630520         3.551353         1.752879
 H        -2.198502         1.338000        -0.185569
 H        -0.942033         2.583882        -0.381140
 H        -0.058238        -0.414329        -0.222235
 H        -2.354942         0.136558         1.604271
 H        -1.133501        -0.297060         2.846332
 H        -2.982405         1.995383         3.365247
 H        -0.633505         3.477971         3.475842
 H         1.099785         2.482569         1.439054
 H         0.710942         1.403847         2.813279
