19
Iteration:  4464charge 0 multiplicity 1
 O        -2.819440         3.902907         1.458324
 C        -1.915961         2.761240         1.639704
 C        -1.618429         1.861441         0.523385
 C        -0.514075         0.973618         1.300831
 O        -0.046029        -0.190906         0.504389
 C        -1.372666         0.403551         2.438216
 C        -1.969237         1.887564         2.910805
 C        -0.812585         2.715228         2.724982
 C         0.376288         1.974509         1.891338
 H        -2.196189         4.572525         1.056307
 H        -2.494394         1.394056         0.019222
 H        -0.924872         2.235354        -0.290702
 H         0.575763        -0.721990         0.907845
 H        -1.900228        -0.455408         2.083623
 H        -0.613731         0.046038         3.172165
 H        -2.595596         2.124959         3.718637
 H        -0.461609         3.619877         3.187535
 H         0.824997         2.688746         1.134108
 H         1.209760         1.575257         2.567661
