19
Iteration:  3420charge 0 multiplicity 1
 O        -2.852343         3.836819         1.401241
 C        -1.957982         2.777627         1.638594
 C        -1.483242         1.960724         0.403874
 C        -0.547490         0.927984         1.265133
 O         0.044268        -0.022657         0.471678
 C        -1.492602         0.480686         2.352295
 C        -1.990937         1.781369         2.853013
 C        -0.754247         2.704883         2.701447
 C         0.367567         1.782401         2.226130
 H        -2.405043         4.708012         1.578271
 H        -2.280433         1.331636        -0.087646
 H        -0.944110         2.604422        -0.233132
 H         0.944570         0.046930         0.603088
 H        -2.234134        -0.064780         1.649045
 H        -1.140662        -0.164144         3.188341
 H        -2.372974         1.897356         3.838930
 H        -0.567601         3.552011         3.341809
 H         1.212784         2.247817         1.880430
 H         0.684961         1.222703         3.088884
