19
Iteration:  1126charge 0 multiplicity 1
 O        -2.821241         3.894254         1.525338
 C        -1.895881         2.830967         1.652348
 C        -1.267253         1.999250         0.383707
 C        -0.540602         0.978514         1.209589
 O        -0.020275        -0.191128         0.498729
 C        -1.604265         0.468303         2.307724
 C        -1.979142         1.740843         2.842838
 C        -0.788104         2.742143         2.791995
 C         0.382213         1.878902         2.180232
 H        -3.618550         3.492840         1.156771
 H        -2.097771         1.573173        -0.290329
 H        -0.694968         2.714287        -0.185872
 H         1.003071        -0.204672         0.560528
 H        -2.462723         0.136818         1.752280
 H        -1.175543        -0.407179         2.855976
 H        -2.816602         1.916413         3.465552
 H        -0.642898         3.572567         3.461552
 H         1.122659         2.398104         1.571170
 H         0.834650         1.291843         2.959731
