19
Iteration:   501
 O        -2.644892         4.008846         1.355449
 C        -1.952766         2.838304         1.700779
 C        -1.330011         2.102711         0.566597
 C        -0.555689         0.910305         1.306896
 O         0.204959        -0.016011         0.494964
 C        -1.722634         0.320018         2.114847
 C        -2.126020         1.641936         2.770754
 C        -0.860179         2.627290         2.795662
 C         0.315461         1.765700         2.258296
 H        -3.234198         4.081344         2.154734
 H        -2.076573         1.524355        -0.107395
 H        -0.653806         2.768917        -0.043049
 H         0.796769         0.459680        -0.183886
 H        -2.390550        -0.369591         1.496331
 H        -1.147002        -0.258893         2.830008
 H        -2.867087         1.591191         3.602285
 H        -0.728387         3.374738         3.606711
 H         1.035893         2.498476         1.816227
 H         0.762220         1.370932         3.159305
