19
Iteration:  2770charge 0 multiplicity 1
 O        -2.591452         3.952471         1.554657
 C        -1.874706         2.673383         1.604474
 C        -1.409337         1.772660         0.421012
 C        -0.570018         0.944836         1.289467
 O         0.049360        -0.004917         0.476149
 C        -1.608840         0.505692         2.307316
 C        -1.998228         1.712795         2.827001
 C        -0.891583         2.725553         2.780883
 C         0.332358         2.024019         2.116877
 H        -3.340587         4.001244         0.977415
 H        -2.153267         1.147670        -0.124908
 H        -0.835512         2.331614        -0.260314
 H         0.348937        -0.812760         1.004248
 H        -2.448363        -0.067306         1.872648
 H        -1.281238        -0.323277         3.018298
 H        -2.808852         1.820780         3.562344
 H        -0.888639         3.682077         3.270027
 H         0.916684         2.659768         1.390032
 H         1.089673         1.500815         2.745633
