19
Iteration:    70charge 0 multiplicity 1
 O        -2.713151         3.853052         1.590896
 C        -1.907735         2.737388         1.643195
 C        -1.383477         2.007513         0.432742
 C        -0.529929         0.952603         1.210116
 O         0.230235        -0.008579         0.509956
 C        -1.646984         0.473055         2.306844
 C        -2.038930         1.737501         2.890277
 C        -0.822280         2.689026         2.734240
 C         0.323805         1.876038         2.039582
 H        -3.545493         3.572004         1.129995
 H        -2.234715         1.458745        -0.021692
 H        -0.988328         2.772445        -0.293781
 H        -0.357850        -0.778490         0.379885
 H        -2.473770        -0.023320         1.806368
 H        -1.413352        -0.234948         3.162203
 H        -2.834702         2.037584         3.590545
 H        -0.646269         3.478494         3.503710
 H         0.895885         2.591559         1.447150
 H         1.081449         1.342164         2.712024
