19
Iteration:  3244
 O        -2.705333         3.946820         1.577942
 C        -1.903427         2.776358         1.653736
 C        -1.382489         1.988865         0.457076
 C        -0.553874         0.905688         1.329105
 O         0.042487        -0.155735         0.594902
 C        -1.556558         0.337801         2.278261
 C        -2.123640         1.777458         2.733386
 C        -0.805503         2.735441         2.668677
 C         0.405707         1.955579         2.064643
 H        -3.613826         3.517097         1.475569
 H        -2.114150         1.537872        -0.278686
 H        -0.803104         2.659710        -0.121240
 H         0.807696         0.256843         0.176102
 H        -2.247539        -0.349678         1.728397
 H        -1.101221        -0.192480         3.109873
 H        -2.736808         1.872989         3.646211
 H        -0.780648         3.610439         3.319670
 H         0.820053         2.624967         1.248167
 H         1.086739         1.477489         2.828883
