19
Iteration:  3553
 O        -2.803897         3.798478         1.400075
 C        -1.919302         2.715502         1.688363
 C        -1.349021         2.004557         0.464652
 C        -0.586913         0.934998         1.268983
 O         0.059477        -0.109405         0.435663
 C        -1.612436         0.409382         2.408596
 C        -1.978497         1.748478         2.883380
 C        -0.807813         2.828305         2.709967
 C         0.358337         1.961354         2.042814
 H        -2.586568         4.513985         2.060278
 H        -2.102796         1.702002        -0.319561
 H        -0.638344         2.684567        -0.012562
 H         0.605499        -0.574204         1.035279
 H        -2.556489        -0.190112         2.047599
 H        -1.141457        -0.326309         3.116083
 H        -2.714195         1.891219         3.713639
 H        -0.507703         3.556200         3.505411
 H         0.949763         2.424580         1.282388
 H         1.016681         1.458479         2.696585
