19
Iteration:   127
 O        -2.634931         3.998082         1.527027
 C        -1.877611         2.767637         1.670494
 C        -1.424983         1.885875         0.427724
 C        -0.559318         0.917838         1.202168
 O         0.127749        -0.027517         0.418998
 C        -1.573997         0.408640         2.321736
 C        -2.134938         1.771596         2.817371
 C        -0.908529         2.585771         2.842115
 C         0.337224         1.916804         2.150152
 H        -3.538475         3.697484         1.470889
 H        -2.275308         1.399046        -0.135116
 H        -0.788812         2.496927        -0.261757
 H         1.040809         0.288620         0.348735
 H        -2.324942        -0.259895         1.815054
 H        -1.103699        -0.105296         3.205842
 H        -2.828934         1.862143         3.636367
 H        -0.629589         3.418262         3.444766
 H         0.859251         2.723417         1.533821
 H         1.085737         1.303187         2.732962
