19
Iteration:  1871
 O        -2.667070         3.848294         1.656239
 C        -1.835946         2.759486         1.624363
 C        -1.426069         1.913495         0.377909
 C        -0.557034         1.007959         1.186118
 O         0.125069        -0.158810         0.756477
 C        -1.632659         0.439783         2.229220
 C        -2.053517         1.816300         2.773624
 C        -0.794165         2.765951         2.740159
 C         0.322088         1.936356         2.006744
 H        -3.510642         3.433700         1.284919
 H        -2.408354         1.515603        -0.071023
 H        -0.802281         2.502110        -0.258318
 H         0.142756        -0.150331        -0.292199
 H        -2.437717         0.012287         1.734442
 H        -1.262546        -0.381817         2.870328
 H        -2.821840         1.933891         3.595303
 H        -0.764985         3.729310         3.353417
 H         0.921464         2.649199         1.417590
 H         1.028516         1.451956         2.631176
