19
Iteration:  2971
 O        -2.731668         3.908037         1.582509
 C        -2.015893         2.724561         1.583321
 C        -1.282993         2.018616         0.410322
 C        -0.548390         1.005038         1.210237
 O         0.057392        -0.105411         0.554615
 C        -1.581735         0.446983         2.223451
 C        -1.973324         1.782712         2.830081
 C        -0.830195         2.735199         2.693323
 C         0.312031         1.829186         2.171579
 H        -3.630968         3.627243         1.268219
 H        -2.088392         1.605171        -0.279820
 H        -0.650068         2.683917        -0.167967
 H         0.516176        -0.631591         1.296759
 H        -2.492353        -0.101519         1.931791
 H        -0.961330        -0.196766         2.997331
 H        -2.709107         2.010116         3.614753
 H        -0.496283         3.568842         3.285460
 H         1.206118         2.361913         1.614233
 H         0.813378         1.128928         2.884790
