19
Iteration:  3091charge 0 multiplicity 1
 O        -2.680224         3.826181         1.543928
 C        -1.822429         2.793636         1.684971
 C        -1.415711         1.963094         0.465947
 C        -0.563879         0.924713         1.266915
 O         0.146523        -0.037706         0.530650
 C        -1.703535         0.490456         2.236437
 C        -2.099775         1.768284         2.802068
 C        -0.765223         2.706580         2.756678
 C         0.315437         1.872154         2.086194
 H        -3.354993         3.614322         0.884851
 H        -2.276159         1.656330        -0.245882
 H        -0.821529         2.627294        -0.141489
 H         0.775615        -0.513561         1.030225
 H        -2.524540        -0.042813         1.817565
 H        -1.289321        -0.168583         2.946064
 H        -2.907100         1.925823         3.500812
 H        -0.769343         3.578352         3.418656
 H         1.010516         2.465671         1.443141
 H         1.036689         1.416584         2.676520
