19
Iteration:  3983
 O        -2.761999         3.797002         1.485140
 C        -1.923018         2.725429         1.611638
 C        -1.441695         1.856706         0.429739
 C        -0.583906         0.960594         1.283587
 O         0.092641        -0.005593         0.458178
 C        -1.594763         0.515540         2.371703
 C        -1.973398         1.891932         2.948146
 C        -0.751164         2.778853         2.595645
 C         0.416204         1.867343         2.130384
 H        -3.578216         3.539412         1.930234
 H        -2.120129         1.214426        -0.109755
 H        -0.911194         2.602972        -0.191883
 H         0.011817        -0.913379         0.705062
 H        -2.463012        -0.029215         2.011794
 H        -1.253354        -0.165812         3.095890
 H        -2.758253         2.262197         3.679973
 H        -0.613480         3.736647         3.080391
 H         1.276820         2.119229         1.517921
 H         1.018743         1.223112         2.840790
