19
Iteration:  3279charge 0 multiplicity 1
 O        -2.724012         3.852442         1.380057
 C        -1.872785         2.787310         1.691495
 C        -1.465029         1.939874         0.390891
 C        -0.611140         0.939659         1.200017
 O         0.071015        -0.060970         0.474332
 C        -1.553242         0.441500         2.267422
 C        -1.997873         1.818500         2.952840
 C        -0.770827         2.738977         2.775092
 C         0.317795         1.835572         2.243282
 H        -3.624917         3.790722         1.786190
 H        -2.221345         1.320094        -0.187705
 H        -0.871655         2.660522        -0.207338
 H         0.973502         0.199595         0.430400
 H        -2.388274        -0.050171         1.804477
 H        -1.059861        -0.190158         2.951116
 H        -2.678777         1.811988         3.838851
 H        -0.680037         3.727589         3.271206
 H         1.223602         2.385142         1.714106
 H         0.885646         1.065365         2.780968
