19
Iteration:   812
 O        -2.725919         4.077008         1.552776
 C        -1.939113         2.828410         1.665422
 C        -1.359391         2.019680         0.482041
 C        -0.553974         1.008605         1.220509
 O         0.172365        -0.081169         0.556105
 C        -1.639469         0.330163         2.188337
 C        -2.140080         1.645116         2.711475
 C        -0.882687         2.600228         2.795378
 C         0.378266         1.781821         2.228753
 H        -2.879076         4.245319         0.577312
 H        -2.081620         1.394529        -0.095220
 H        -0.669619         2.639001        -0.214694
 H         0.943018         0.422019         0.219289
 H        -2.397919        -0.249447         1.711887
 H        -1.220716        -0.300602         2.993047
 H        -2.919763         1.839864         3.410956
 H        -0.712861         3.374574         3.538741
 H         1.166022         2.376075         1.769310
 H         0.936683         1.159674         2.962253
