19
Iteration:   732charge 0 multiplicity 1
 O        -2.730910         3.914859         1.549359
 C        -1.821238         2.769734         1.668829
 C        -1.310777         2.134508         0.321617
 C        -0.567039         0.986909         1.193198
 O         0.199908        -0.099820         0.691408
 C        -1.681463         0.396858         2.073193
 C        -2.172553         1.707914         2.699083
 C        -0.845638         2.648190         2.798038
 C         0.317009         1.768506         2.286778
 H        -3.266095         3.882932         2.409695
 H        -2.142887         1.990999        -0.472682
 H        -0.553506         2.906911        -0.100741
 H         0.386474         0.069371        -0.268410
 H        -2.454246        -0.103320         1.468188
 H        -1.165098        -0.186514         2.863240
 H        -2.887161         1.848531         3.554174
 H        -0.673496         3.495825         3.498295
 H         1.135314         2.396825         1.777859
 H         0.774487         1.102870         3.042845
