19
Iteration:  3271charge 0 multiplicity 1
 O        -2.702647         3.898709         1.393495
 C        -1.944966         2.714669         1.671670
 C        -1.429537         1.947636         0.404185
 C        -0.613143         0.975633         1.182893
 O         0.053525        -0.118917         0.513015
 C        -1.486163         0.503388         2.255894
 C        -1.969076         1.811064         2.983282
 C        -0.854659         2.737826         2.767835
 C         0.360732         1.830890         2.178922
 H        -3.582687         3.730312         1.827163
 H        -2.184801         1.576341        -0.303142
 H        -0.858975         2.748875        -0.283692
 H         0.975559         0.204080         0.510216
 H        -2.376198        -0.016723         1.923361
 H        -1.020674        -0.375918         2.778526
 H        -2.629137         1.726308         3.823454
 H        -0.890206         3.630568         3.395392
 H         1.201742         2.406217         1.692784
 H         0.667639         1.041094         2.900766
