19
Iteration:  1599charge 0 multiplicity 1
 O        -2.720771         3.909935         1.662943
 C        -1.882458         2.812091         1.646362
 C        -1.351988         1.992956         0.459850
 C        -0.624932         0.925686         1.211795
 O         0.251245        -0.122040         0.745705
 C        -1.652182         0.370797         2.229717
 C        -2.090794         1.812214         2.715423
 C        -0.813752         2.719439         2.683419
 C         0.242594         1.891521         1.925251
 H        -2.303785         4.792889         1.683567
 H        -2.249491         1.589725        -0.108566
 H        -0.747665         2.499888        -0.256598
 H        -0.252316        -0.826579         0.302322
 H        -2.372172        -0.343834         1.751003
 H        -1.166262        -0.225056         3.108254
 H        -2.882401         1.853780         3.465718
 H        -0.540654         3.306572         3.525480
 H         0.778434         2.555888         1.141914
 H         1.008328         1.296406         2.507391
