19
Iteration:  1113charge 0 multiplicity 1
 O        -2.740927         3.804181         1.637449
 C        -1.797012         2.763487         1.645362
 C        -1.373522         2.107248         0.361088
 C        -0.563380         0.919558         1.209138
 O         0.032264        -0.212405         0.594330
 C        -1.563815         0.455593         2.152551
 C        -1.985606         1.890362         2.788308
 C        -0.830811         2.779665         2.772664
 C         0.259147         1.861722         2.149479
 H        -3.539549         3.501868         1.144781
 H        -2.241823         1.643335        -0.297895
 H        -0.601802         2.549142        -0.320079
 H         0.928735        -0.208048         0.801911
 H        -2.394662        -0.126226         1.727109
 H        -1.153333        -0.113225         2.981705
 H        -2.833810         1.960222         3.496469
 H        -0.692313         3.573355         3.488117
 H         0.876105         2.590322         1.637156
 H         0.924938         1.228058         2.804787
