19
Iteration:   338
 O        -2.697939         3.860455         1.617094
 C        -1.871153         2.746879         1.592831
 C        -1.282372         2.125105         0.426420
 C        -0.574261         0.995198         1.240748
 O         0.085925        -0.034714         0.728047
 C        -1.705665         0.401441         2.109707
 C        -2.112256         1.728758         2.578556
 C        -0.767728         2.612047         2.774415
 C         0.328321         1.862766         2.187735
 H        -3.493121         3.529088         1.994454
 H        -2.139621         1.736810        -0.177930
 H        -0.465675         2.695165         0.084106
 H         0.538962         0.289209        -0.044543
 H        -2.372975        -0.081765         1.307440
 H        -1.411653        -0.274971         2.914492
 H        -2.797850         1.748503         3.389393
 H        -0.561619         3.243723         3.603588
 H         1.195510         2.437996         1.640525
 H         0.796864         1.200900         2.957127
