19
Iteration:  4878
 O        -2.626047         3.822871         1.411170
 C        -1.902647         2.642765         1.694112
 C        -1.529353         1.833814         0.513798
 C        -0.580118         0.896330         1.240138
 O        -0.048117        -0.094959         0.444493
 C        -1.439310         0.434431         2.495978
 C        -1.995082         1.806193         2.883723
 C        -0.892507         2.790889         2.730041
 C         0.351741         2.122050         1.941894
 H        -2.160421         4.574922         1.789720
 H        -2.321121         1.274958         0.026791
 H        -1.058919         2.531266        -0.171672
 H         0.463956        -0.835241         0.894731
 H        -2.192633        -0.393142         2.284116
 H        -0.739162         0.114560         3.266441
 H        -2.790470         1.886144         3.567964
 H        -0.875326         3.729911         3.273992
 H         0.714687         2.723570         0.969883
 H         1.260478         1.823788         2.514531
