19
Iteration:  2156charge 0 multiplicity 1
 O        -2.829139         3.928710         1.539685
 C        -1.880071         2.779462         1.687922
 C        -1.455421         1.998549         0.485826
 C        -0.496150         0.891122         1.234861
 O         0.127063        -0.128730         0.577416
 C        -1.526219         0.463486         2.325277
 C        -2.037948         1.763700         2.706321
 C        -0.742882         2.738771         2.675468
 C         0.379554         1.930288         2.098297
 H        -3.730298         3.547339         1.481424
 H        -2.314602         1.560668         0.097538
 H        -0.880888         2.444790        -0.299077
 H        -0.422904        -0.995044         0.369314
 H        -2.249151        -0.060012         1.716159
 H        -1.116838        -0.186288         3.159179
 H        -2.712470         2.027001         3.568510
 H        -0.511350         3.558752         3.368113
 H         0.986322         2.582277         1.374931
 H         0.977803         1.343677         2.835095
