19
Iteration:  4824charge 0 multiplicity 1
 O        -2.939582         3.704297         1.490893
 C        -1.862950         2.796160         1.675588
 C        -1.565882         1.908826         0.487597
 C        -0.657119         0.922073         1.217768
 O         0.129441        -0.084913         0.492974
 C        -1.535440         0.491788         2.409594
 C        -1.857308         1.928405         2.949747
 C        -0.637953         2.846384         2.601578
 C         0.278580         1.811669         2.016232
 H        -2.612548         4.540633         1.063525
 H        -2.439287         1.387121         0.047524
 H        -1.106848         2.540635        -0.284350
 H         0.928735        -0.369502         1.070894
 H        -2.371032        -0.085916         1.955248
 H        -1.113974        -0.239750         3.143508
 H        -2.406825         2.132687         3.831174
 H        -0.182168         3.658162         3.136531
 H         1.136000         2.237218         1.387215
 H         0.849508         1.221166         2.717298
