19
Iteration:  2874
 O        -2.726721         3.957872         1.566731
 C        -1.934838         2.828987         1.608340
 C        -1.354202         2.030209         0.372487
 C        -0.561052         0.897936         1.163337
 O         0.104245        -0.120834         0.551404
 C        -1.571119         0.455884         2.343839
 C        -2.027199         1.750473         2.857572
 C        -0.826113         2.667209         2.682702
 C         0.326565         1.834049         2.103942
 H        -3.631829         3.659846         1.329916
 H        -2.207006         1.687361        -0.125458
 H        -0.678795         2.589593        -0.251462
 H         0.756847        -0.508886         1.259792
 H        -2.331665        -0.170074         1.879089
 H        -1.103090        -0.079809         3.203309
 H        -2.858112         1.721160         3.605701
 H        -0.757952         3.583925         3.222037
 H         0.971815         2.546685         1.501040
 H         0.851894         1.404257         3.004981
