19
Iteration:  3565
 O        -2.835497         3.898067         1.408004
 C        -1.881469         2.828131         1.667334
 C        -1.449647         2.001328         0.424584
 C        -0.555302         0.888345         1.276548
 O         0.046340        -0.142559         0.510622
 C        -1.517748         0.369261         2.346984
 C        -1.942426         1.764918         2.881772
 C        -0.764316         2.726139         2.685444
 C         0.316496         1.927487         2.084560
 H        -3.053242         4.322609         2.261573
 H        -2.315712         1.587833        -0.116846
 H        -0.756782         2.565230        -0.294443
 H         0.912099        -0.491652         0.973386
 H        -2.314928        -0.047992         1.633399
 H        -1.131974        -0.340836         3.130708
 H        -2.710894         1.871672         3.653801
 H        -0.619109         3.650207         3.298715
 H         0.977333         2.636231         1.583049
 H         0.841430         1.488018         2.872106
