19
Iteration:  2697charge 0 multiplicity 1
 O        -2.674945         3.736141         1.461132
 C        -1.850342         2.718845         1.657898
 C        -1.398806         1.955141         0.482976
 C        -0.589384         0.923136         1.289378
 O         0.054899        -0.007397         0.379176
 C        -1.731149         0.460654         2.324206
 C        -1.983663         1.880144         2.845730
 C        -0.798927         2.798236         2.663798
 C         0.429692         1.867430         2.225908
 H        -3.604367         3.513951         1.640874
 H        -2.196511         1.456334        -0.100636
 H        -0.727814         2.554511        -0.343999
 H         0.900625        -0.447124         0.809583
 H        -2.687523         0.205602         1.838472
 H        -1.552410        -0.209663         3.246823
 H        -2.713812         2.082009         3.599701
 H        -0.766881         3.611626         3.362794
 H         1.260619         2.499796         1.670390
 H         0.759201         1.231592         3.052889
