19
Iteration:   375charge 0 multiplicity 1
 O        -2.540890         4.054615         1.498796
 C        -1.959634         2.774878         1.659909
 C        -1.389225         1.934443         0.438882
 C        -0.535396         0.968678         1.264078
 O         0.240920        -0.053735         0.400125
 C        -1.642733         0.370389         2.220436
 C        -2.115140         1.675908         2.794376
 C        -0.936683         2.628211         2.830589
 C         0.230556         1.875836         2.341080
 H        -3.351391         3.958757         0.989385
 H        -2.172635         1.545831        -0.187435
 H        -0.752057         2.488410        -0.299267
 H         0.656518         0.533375        -0.300091
 H        -2.316507        -0.196394         1.642081
 H        -1.300175        -0.225491         3.104356
 H        -2.887188         1.654901         3.608345
 H        -0.816372         3.342856         3.700742
 H         0.970052         2.522899         1.962730
 H         0.632577         1.025212         2.917203
