19
Iteration:  3000
 O        -2.737356         3.884817         1.616479
 C        -1.851714         2.837658         1.600344
 C        -1.378142         1.905607         0.493478
 C        -0.506042         0.895470         1.332801
 O         0.151875        -0.064535         0.513370
 C        -1.705939         0.365174         2.213553
 C        -2.075406         1.845425         2.714939
 C        -0.794986         2.773855         2.748897
 C         0.359090         1.918219         2.108438
 H        -3.580376         3.429076         1.505553
 H        -2.311522         1.718637        -0.146415
 H        -0.781890         2.311941        -0.353685
 H         0.553601        -0.854756         1.063039
 H        -2.475335        -0.009748         1.547971
 H        -1.622068        -0.359554         2.924685
 H        -2.880168         2.262961         3.390843
 H        -0.454161         3.454131         3.518595
 H         0.920609         2.387161         1.363517
 H         1.117921         1.446697         2.672866
