19
Iteration:  2210
 O        -2.672705         3.942516         1.420076
 C        -1.927418         2.754060         1.732623
 C        -1.516088         1.848832         0.523069
 C        -0.591253         0.892325         1.252596
 O         0.213438         0.045572         0.503789
 C        -1.541066         0.447078         2.400000
 C        -2.068895         1.807610         2.880831
 C        -0.782760         2.749702         2.696337
 C         0.309290         1.814109         2.051552
 H        -3.480943         3.714772         0.942341
 H        -2.371255         1.233594         0.167878
 H        -1.112315         2.377517        -0.320738
 H        -0.163620        -0.122297        -0.446187
 H        -2.194065        -0.315926         2.016658
 H        -0.869533        -0.077753         3.146056
 H        -2.609590         2.038738         3.822037
 H        -0.666313         3.480065         3.489156
 H         0.997210         2.199307         1.262920
 H         0.920368         1.308078         2.809003
