19
Iteration:  3351charge 0 multiplicity 1
 O        -2.703939         3.940961         1.562771
 C        -1.950586         2.715518         1.692980
 C        -1.499001         2.002140         0.386650
 C        -0.532514         1.025020         1.227657
 O         0.063174        -0.183343         0.724799
 C        -1.490152         0.426692         2.138504
 C        -2.055097         1.721123         2.801064
 C        -0.781143         2.741051         2.693363
 C         0.333006         1.931623         2.141700
 H        -3.270142         3.774517         0.764008
 H        -2.402153         1.642719        -0.117350
 H        -0.871467         2.776657        -0.136305
 H         0.508945        -0.114915        -0.157184
 H        -2.250316        -0.223195         1.606481
 H        -0.860678        -0.151110         2.934735
 H        -2.529519         1.545359         3.782530
 H        -0.693626         3.638208         3.333355
 H         1.142422         2.367798         1.662087
 H         0.856977         1.265914         2.866461
