19
Iteration:  3268
 O        -2.692352         3.914029         1.407734
 C        -1.987226         2.684524         1.661406
 C        -1.412001         1.977769         0.422758
 C        -0.575540         1.002207         1.174317
 O         0.049917        -0.134996         0.532877
 C        -1.501945         0.494119         2.283205
 C        -1.946765         1.782425         2.955754
 C        -0.873741         2.732100         2.749040
 C         0.355619         1.829101         2.146711
 H        -3.544651         3.717194         1.817341
 H        -2.245103         1.644188        -0.275882
 H        -0.829628         2.680449        -0.233243
 H         0.939194         0.116607         0.478854
 H        -2.393736         0.048792         1.902035
 H        -0.967967        -0.274579         2.749102
 H        -2.666979         1.754278         3.812712
 H        -0.842918         3.591287         3.451961
 H         1.216538         2.463364         1.633158
 H         0.588402         1.166396         3.001043
