19
Iteration:  3435
 O        -2.855251         3.876181         1.392659
 C        -1.924750         2.787502         1.689943
 C        -1.437247         1.946185         0.544200
 C        -0.509856         0.989587         1.231061
 O         0.058197        -0.158106         0.476542
 C        -1.566736         0.403210         2.240369
 C        -1.978721         1.808629         2.825386
 C        -0.773770         2.732250         2.721414
 C         0.368502         1.911715         2.186310
 H        -2.662045         4.589192         2.020077
 H        -2.269444         1.479690         0.060356
 H        -1.012363         2.491516        -0.327775
 H         0.967007        -0.307080         0.797616
 H        -2.341181        -0.253150         2.046971
 H        -0.928611        -0.176024         2.880327
 H        -2.874905         1.912656         3.483963
 H        -0.648748         3.463923         3.525943
 H         1.161328         2.523951         1.548329
 H         0.898156         1.235360         2.892705
