19
Iteration:   773
 O        -2.609403         3.920434         1.407235
 C        -1.860896         2.747805         1.681145
 C        -1.251128         2.024773         0.458219
 C        -0.560284         0.921391         1.215272
 O         0.092256         0.045636         0.365051
 C        -1.706688         0.353925         2.281779
 C        -2.119417         1.724053         2.854650
 C        -0.871187         2.652929         2.859920
 C         0.324672         1.855534         2.405364
 H        -3.417629         3.583648         0.995224
 H        -2.024406         1.628357        -0.218703
 H        -0.505376         2.488336        -0.122480
 H         0.689184         0.410969        -0.379263
 H        -2.611397        -0.096481         1.697029
 H        -1.319491        -0.485657         2.860475
 H        -3.084824         1.734372         3.441099
 H        -0.978439         3.512924         3.540522
 H         0.865435         2.702752         1.883758
 H         0.882622         1.103253         2.983864
