19
Iteration:     2charge 0 multiplicity 1
 O        -2.767101         3.810033         1.460965
 C        -1.913924         2.735702         1.697399
 C        -1.428384         1.968936         0.481926
 C        -0.559980         0.948678         1.250761
 O         0.072411         0.030206         0.404639
 C        -1.559757         0.414629         2.296927
 C        -2.004131         1.781599         2.839610
 C        -0.788201         2.703848         2.721540
 C         0.341566         1.893487         2.117965
 H        -2.992694         4.190086         2.303250
 H        -2.228055         1.485795        -0.087285
 H        -0.822960         2.609912        -0.184406
 H         0.628150        -0.532290         0.983379
 H        -2.339074        -0.173222         1.842797
 H        -1.071903        -0.224594         3.057753
 H        -2.744061         1.894627         3.625316
 H        -0.664474         3.514993         3.419750
 H         1.026864         2.501189         1.542970
 H         0.947771         1.329689         2.869990
