19
Iteration:  1340charge 0 multiplicity 1
 O        -2.759182         3.997540         1.571102
 C        -1.949416         2.800257         1.656021
 C        -1.513320         1.960394         0.424382
 C        -0.516264         0.896906         1.213729
 O         0.194998        -0.216129         0.647936
 C        -1.598925         0.441190         2.191734
 C        -2.026788         1.722487         2.821025
 C        -0.818260         2.709196         2.637226
 C         0.317031         1.898466         2.121850
 H        -2.132075         4.704835         1.896669
 H        -2.360508         1.489405        -0.020019
 H        -1.120385         2.753173        -0.274868
 H         1.015046         0.112509         0.097104
 H        -2.537330        -0.001326         1.707690
 H        -1.269234        -0.291804         2.913315
 H        -2.779513         1.781997         3.575622
 H        -0.723475         3.420127         3.483994
 H         1.004447         2.456396         1.538766
 H         0.872407         1.318940         2.898459
