19
Iteration:  4823
 O        -2.940850         3.698798         1.498107
 C        -1.861185         2.800473         1.671764
 C        -1.562174         1.906194         0.481058
 C        -0.648136         0.921609         1.213559
 O         0.123652        -0.086647         0.499111
 C        -1.536612         0.496005         2.408288
 C        -1.858288         1.926353         2.953741
 C        -0.641155         2.844020         2.615650
 C         0.280575         1.810226         2.001434
 H        -2.627516         4.529425         1.038103
 H        -2.406158         1.391079         0.031403
 H        -1.096320         2.546361        -0.263726
 H         0.933810        -0.365071         1.081586
 H        -2.393525        -0.071947         1.939230
 H        -1.130435        -0.213774         3.127101
 H        -2.399845         2.185895         3.836071
 H        -0.205691         3.668442         3.126308
 H         1.152637         2.265481         1.376610
 H         0.834396         1.206451         2.714202
