19
Iteration:  3469
 O        -2.683923         3.851779         1.502446
 C        -1.965255         2.667941         1.592878
 C        -1.344820         1.901119         0.414069
 C        -0.601370         0.941087         1.263685
 O         0.079619         0.034978         0.553893
 C        -1.681365         0.432796         2.333614
 C        -1.999509         1.766828         2.843256
 C        -0.775146         2.645664         2.714353
 C         0.341209         1.987421         2.045277
 H        -3.309655         3.952278         2.218670
 H        -2.106381         1.495047        -0.200436
 H        -0.640565         2.665555        -0.031040
 H         0.550442        -0.623254         1.191724
 H        -2.443985        -0.127749         1.928913
 H        -0.998540        -0.036850         3.009072
 H        -2.741551         2.139644         3.582434
 H        -0.723656         3.582006         3.307140
 H         0.879409         2.627671         1.195334
 H         1.191175         1.422966         2.515362
