19
Iteration:  4231charge 0 multiplicity 1
 O        -2.852229         3.698270         1.408505
 C        -1.859550         2.828334         1.618231
 C        -1.451521         1.949367         0.488161
 C        -0.650972         0.921074         1.253860
 O        -0.062652        -0.175880         0.581016
 C        -1.433765         0.494817         2.489926
 C        -1.850034         1.889949         2.894612
 C        -0.716095         2.816049         2.625287
 C         0.382072         1.887460         1.991180
 H        -3.207923         4.096446         2.212963
 H        -2.356578         1.673214        -0.095705
 H        -0.813839         2.349135        -0.342029
 H         0.040649         0.111499        -0.313082
 H        -2.413976        -0.063877         2.490495
 H        -0.919939        -0.017707         3.268495
 H        -2.559363         2.107424         3.642655
 H        -0.517658         3.694140         3.235062
 H         1.031690         2.349145         1.176672
 H         0.984267         1.288577         2.665714
