19
Iteration:  2250
 O        -2.655232         3.840349         1.640240
 C        -1.951084         2.677681         1.646151
 C        -1.410876         1.937333         0.405210
 C        -0.565530         0.986542         1.236767
 O         0.184811        -0.174888         0.647805
 C        -1.563318         0.456885         2.302213
 C        -2.047158         1.818213         2.849938
 C        -0.805941         2.829446         2.594042
 C         0.303681         1.978332         2.017134
 H        -3.625172         3.631678         1.586592
 H        -2.257337         1.394463        -0.184698
 H        -0.918874         2.542426        -0.348691
 H        -0.311315        -0.457649        -0.096178
 H        -2.491326         0.020444         1.916363
 H        -1.051109        -0.095941         3.044458
 H        -2.764229         1.865522         3.719968
 H        -0.630925         3.649302         3.301437
 H         0.791708         2.582872         1.291693
 H         0.956528         1.406668         2.663325
