19
Iteration:  2069
 O        -2.630245         3.879897         1.327131
 C        -1.882062         2.734878         1.689107
 C        -1.528797         1.916230         0.498753
 C        -0.614001         1.031338         1.235024
 O         0.072135        -0.001269         0.464361
 C        -1.470974         0.430074         2.431848
 C        -2.018774         1.684028         2.867926
 C        -0.793990         2.724931         2.809380
 C         0.341645         1.865359         2.196727
 H        -3.457794         3.720670         0.904437
 H        -2.349050         1.368372         0.067408
 H        -0.966573         2.444608        -0.262669
 H        -0.423870        -0.041181        -0.426901
 H        -2.004011        -0.403180         2.031289
 H        -0.640949         0.054303         3.055494
 H        -2.901899         2.052233         3.420328
 H        -0.786441         3.645318         3.431470
 H         0.888684         2.554004         1.515569
 H         0.858658         1.307118         2.968955
