19
Iteration:  1800
 O        -2.654636         3.733844         1.297824
 C        -1.848423         2.749114         1.667519
 C        -1.454482         1.872764         0.469796
 C        -0.628031         0.937820         1.254167
 O         0.076123         0.076814         0.321415
 C        -1.607547         0.459637         2.360809
 C        -2.081708         1.822792         2.894886
 C        -0.786804         2.708243         2.888094
 C         0.378416         1.933649         2.223291
 H        -2.713318         4.482705         1.953437
 H        -2.308820         1.453441        -0.021241
 H        -0.862000         2.614256        -0.134710
 H         0.223579        -0.867237         0.784733
 H        -2.476111        -0.146848         1.827737
 H        -1.141785        -0.186557         3.100460
 H        -2.780219         2.188287         3.650428
 H        -0.779783         3.637995         3.422489
 H         1.196498         2.336909         1.599814
 H         0.916917         1.110213         2.901385
