19
Iteration:  4616charge 0 multiplicity 1
 O        -2.797852         3.771219         1.358333
 C        -1.877616         2.702833         1.658558
 C        -1.632242         1.840790         0.444532
 C        -0.659441         0.912297         1.275522
 O         0.040358         0.055658         0.447058
 C        -1.520863         0.442589         2.518481
 C        -1.776538         1.875590         2.981376
 C        -0.647030         2.799602         2.609815
 C         0.281401         1.886588         2.042696
 H        -2.572621         4.577787         1.801829
 H        -2.545875         1.191150         0.361200
 H        -1.381014         2.201014        -0.623841
 H         0.613715        -0.576819         0.843637
 H        -2.389291        -0.192274         2.196888
 H        -0.907834        -0.184589         3.211185
 H        -2.422799         2.236358         3.822427
 H        -0.492712         3.721510         3.201267
 H         0.964563         2.302606         1.238961
 H         0.911336         1.371718         2.787997
