19
Iteration:  3373charge 0 multiplicity 1
 O        -2.781414         3.905648         1.572877
 C        -1.870107         2.810572         1.640557
 C        -1.417759         1.974111         0.466554
 C        -0.514146         0.959778         1.295850
 O         0.124045        -0.142841         0.573529
 C        -1.615993         0.414078         2.305340
 C        -2.027824         1.773095         2.814143
 C        -0.859272         2.673338         2.738683
 C         0.368907         1.900170         2.033157
 H        -2.932121         4.026584         0.630314
 H        -2.274810         1.411102         0.030921
 H        -0.718991         2.452866        -0.306423
 H         0.727178         0.169250        -0.144366
 H        -2.496276        -0.005931         1.713718
 H        -1.244573        -0.320165         3.128257
 H        -2.898943         1.976527         3.482479
 H        -0.797475         3.342887         3.623714
 H         0.883793         2.578309         1.416881
 H         1.178011         1.499590         2.673506
