19
Iteration:   840
 O        -2.692497         3.856654         1.733398
 C        -1.867446         2.828991         1.649130
 C        -1.363969         2.090172         0.408101
 C        -0.555420         0.971179         1.207079
 O         0.214320        -0.211942         0.664837
 C        -1.665475         0.444173         2.085369
 C        -2.134816         1.729753         2.639979
 C        -0.879809         2.702701         2.736735
 C         0.282038         1.835752         2.216516
 H        -2.856802         4.265328         0.884749
 H        -2.120242         1.629624        -0.221890
 H        -0.634315         2.600933        -0.166180
 H         0.953890         0.289824         0.404651
 H        -2.517673         0.005490         1.461438
 H        -1.513837        -0.366669         2.834007
 H        -2.872978         1.927545         3.408455
 H        -0.664923         3.533571         3.400367
 H         0.771073         2.567505         1.486655
 H         1.000809         1.389652         2.946366
