19
Iteration:  2309
 O        -2.739312         3.822147         1.408047
 C        -1.870119         2.719749         1.650495
 C        -1.517068         1.843237         0.489407
 C        -0.569483         0.957084         1.289931
 O         0.104078         0.012382         0.414559
 C        -1.537942         0.477995         2.327612
 C        -1.986075         1.914093         2.976361
 C        -0.773802         2.744003         2.707118
 C         0.406659         1.901678         2.150038
 H        -3.600145         3.444880         1.297485
 H        -2.440551         1.242967         0.223898
 H        -0.982112         2.419311        -0.311092
 H        -0.245486        -0.863420         0.642204
 H        -2.395089         0.075817         1.842830
 H        -1.142856        -0.378172         2.942100
 H        -2.752072         1.994257         3.707958
 H        -0.590015         3.696328         3.222820
 H         1.134949         2.447034         1.552336
 H         1.034859         1.285596         2.733019
