19
Iteration:   205
 O        -2.650012         3.859435         1.617180
 C        -1.817799         2.756229         1.658948
 C        -1.339765         2.079188         0.381900
 C        -0.645234         0.985026         1.216434
 O         0.221087         0.003787         0.538986
 C        -1.676733         0.413633         2.229145
 C        -2.094426         1.732096         2.757289
 C        -0.847659         2.682720         2.741060
 C         0.272801         1.860704         2.166196
 H        -3.504565         3.467983         1.497931
 H        -2.120020         1.588601        -0.346642
 H        -0.606026         2.614392        -0.271750
 H        -0.156584        -0.829467         0.731833
 H        -2.548438        -0.189527         1.745711
 H        -1.150461        -0.195819         2.988044
 H        -2.798291         1.808718         3.612318
 H        -0.670800         3.534833         3.418704
 H         1.071256         2.449498         1.524665
 H         0.817158         1.234786         2.900966
