19
Iteration:  1916
 O        -2.706962         3.959484         1.449005
 C        -1.957286         2.715286         1.674407
 C        -1.458837         1.950809         0.493040
 C        -0.588003         0.924621         1.263751
 O         0.070042        -0.075323         0.361261
 C        -1.519079         0.439245         2.345714
 C        -2.025121         1.794368         2.909469
 C        -0.772042         2.735244         2.693000
 C         0.290999         1.853429         2.210283
 H        -3.152352         3.839029         0.569010
 H        -2.270886         1.249157         0.050825
 H        -0.845172         2.527852        -0.183339
 H         1.070582        -0.066373         0.675147
 H        -2.186170        -0.364296         2.138561
 H        -0.903813         0.067252         3.199803
 H        -2.678744         1.842716         3.779520
 H        -0.695309         3.673574         3.226185
 H         1.129358         2.298111         1.645458
 H         0.743989         1.235647         2.963724
