19
Iteration:   699charge 0 multiplicity 1
 O        -2.732367         3.979199         1.556803
 C        -1.871416         2.783484         1.720271
 C        -1.283476         2.006238         0.440219
 C        -0.548522         0.931204         1.254006
 O         0.213020        -0.069648         0.618742
 C        -1.738996         0.384938         2.055749
 C        -2.221526         1.686165         2.666466
 C        -0.873655         2.650038         2.768681
 C         0.368414         1.838618         2.213394
 H        -2.582642         4.327854         2.455110
 H        -2.080181         1.639332        -0.319439
 H        -0.533648         2.763482        -0.010599
 H         0.755614         0.284750        -0.038876
 H        -2.319665        -0.222920         1.341587
 H        -1.490716        -0.403308         2.799499
 H        -2.976492         1.842681         3.483951
 H        -0.722938         3.437874         3.529981
 H         1.107020         2.463162         1.587833
 H         0.854819         1.343422         3.048659
