19
Iteration:  1038charge 0 multiplicity 1
 O        -2.566242         3.887248         1.351090
 C        -1.860192         2.716400         1.681562
 C        -1.440573         1.951636         0.459481
 C        -0.598389         1.058146         1.296388
 O         0.003567         0.061422         0.527947
 C        -1.558907         0.383611         2.290245
 C        -2.076324         1.763231         2.757085
 C        -0.817550         2.571846         2.851755
 C         0.352360         1.829365         2.249036
 H        -3.461561         3.594559         1.094487
 H        -2.310158         1.478419        -0.107325
 H        -0.904582         2.603773        -0.200020
 H         0.299149         0.625017        -0.278828
 H        -2.283827        -0.284624         1.807249
 H        -0.954521        -0.085957         3.101974
 H        -2.906509         1.871323         3.510525
 H        -0.647744         3.441102         3.492047
 H         1.012178         2.426627         1.599681
 H         0.835528         1.262006         3.002466
