19
Iteration:  2587charge 0 multiplicity 1
 O        -2.717589         3.843199         1.435784
 C        -1.866322         2.781931         1.666587
 C        -1.459065         2.027175         0.479023
 C        -0.602287         0.911452         1.250406
 O         0.223751        -0.054451         0.493916
 C        -1.599571         0.467752         2.330451
 C        -2.036661         1.864742         2.836148
 C        -0.782309         2.703564         2.718588
 C         0.344162         1.802128         2.096295
 H        -3.616657         3.574259         1.766796
 H        -2.382935         1.566984         0.076526
 H        -0.842008         2.718094        -0.290832
 H        -0.275330        -0.789288         0.734570
 H        -2.499506        -0.036371         2.035016
 H        -1.213883        -0.220079         3.090027
 H        -2.829114         2.194155         3.559222
 H        -0.732213         3.507805         3.454155
 H         1.120153         2.290485         1.456600
 H         0.886289         1.274489         2.815174
