19
Iteration:  3463
 O        -2.686979         3.816515         1.486412
 C        -1.916501         2.696588         1.606357
 C        -1.361172         1.940505         0.430601
 C        -0.587309         0.956436         1.300577
 O         0.065794        -0.009451         0.546163
 C        -1.646210         0.427013         2.319022
 C        -2.036467         1.798571         2.812647
 C        -0.760197         2.633249         2.717655
 C         0.300701         2.020371         2.033280
 H        -3.121433         3.940834         2.362980
 H        -2.137053         1.601673        -0.341946
 H        -0.544877         2.453077        -0.088785
 H         0.584318        -0.482526         1.140116
 H        -2.542566        -0.226144         1.921453
 H        -1.131544        -0.219679         3.133137
 H        -2.664171         1.906503         3.688811
 H        -0.599850         3.539955         3.255424
 H         0.657408         2.680947         1.324459
 H         1.196784         1.620057         2.543742
