19
Iteration:  1278
 O        -2.754145         3.931147         1.323609
 C        -1.876491         2.719396         1.674353
 C        -1.339996         1.865312         0.512950
 C        -0.529226         0.913764         1.327982
 O        -0.034405         0.055035         0.278114
 C        -1.617650         0.408113         2.342093
 C        -1.982408         1.821324         2.934885
 C        -0.772619         2.702059         2.759316
 C         0.364037         1.859868         2.242012
 H        -3.584285         3.787767         1.855409
 H        -2.090997         1.364284        -0.162518
 H        -0.768112         2.540666        -0.109650
 H         0.688332        -0.517982         0.767737
 H        -2.462784         0.027513         1.783115
 H        -1.118939        -0.377609         2.943916
 H        -2.803271         2.013006         3.623078
 H        -0.523050         3.565108         3.440916
 H         1.150188         2.544100         1.797182
 H         0.854189         1.204033         3.005970
