19
Iteration:  2342charge 0 multiplicity 1
 O        -2.619438         3.955068         1.488447
 C        -1.980343         2.794298         1.657409
 C        -1.492071         1.877296         0.540217
 C        -0.622370         0.857468         1.310147
 O         0.133343        -0.018790         0.449820
 C        -1.474093         0.344110         2.451983
 C        -2.076467         1.770623         2.906272
 C        -0.840310         2.765302         2.595240
 C         0.339374         1.948243         1.987837
 H        -3.486332         3.834024         1.036644
 H        -2.324059         1.600497        -0.202297
 H        -0.752223         2.400682        -0.158226
 H         0.467784        -0.800564         1.051950
 H        -2.216356        -0.278098         2.032192
 H        -0.783923        -0.236540         3.089647
 H        -2.764111         1.996645         3.709649
 H        -0.770917         3.666002         3.238740
 H         0.891580         2.518114         1.248875
 H         0.949078         1.437899         2.660838
