19
Iteration:  4535charge 0 multiplicity 1
 O        -2.946822         3.694756         1.575969
 C        -1.908994         2.834717         1.623326
 C        -1.569868         1.924066         0.484982
 C        -0.592785         0.879428         1.244072
 O         0.074152        -0.129028         0.513254
 C        -1.545655         0.513394         2.450940
 C        -1.886916         2.029426         2.863070
 C        -0.600052         2.753632         2.559822
 C         0.422274         1.877276         1.974666
 H        -2.984640         4.370690         0.864270
 H        -2.371307         1.336797         0.037986
 H        -1.100202         2.523624        -0.267420
 H         0.428335        -0.670223         1.160322
 H        -2.396799        -0.114039         2.031861
 H        -1.067946        -0.095216         3.243385
 H        -2.319135         2.182803         3.892010
 H        -0.441256         3.457770         3.356197
 H         1.110716         2.348182         1.279129
 H         0.956539         1.263100         2.671968
