19
Iteration:   140charge 0 multiplicity 1
 O        -2.642745         3.823298         1.455309
 C        -1.931170         2.689394         1.707561
 C        -1.328350         2.027436         0.457242
 C        -0.545115         0.984118         1.238402
 O         0.083272        -0.059128         0.411324
 C        -1.647625         0.472881         2.278100
 C        -2.044761         1.763631         2.863339
 C        -0.779331         2.724102         2.865646
 C         0.271099         1.840629         2.177914
 H        -3.627175         3.645798         1.443296
 H        -2.117496         1.551168        -0.185529
 H        -0.768564         2.744665        -0.155299
 H         0.729945         0.389526        -0.212235
 H        -2.515659        -0.196154         1.971838
 H        -1.080382        -0.127695         3.008332
 H        -2.935783         1.776034         3.501966
 H        -0.889830         3.574416         3.491603
 H         0.939885         2.513005         1.516853
 H         0.959831         1.273782         2.806747
