19
Iteration:  3535
 O        -2.812059         3.719408         1.447545
 C        -1.889801         2.687000         1.681259
 C        -1.365704         1.948270         0.500154
 C        -0.574169         0.936609         1.307146
 O         0.023619         0.054620         0.433525
 C        -1.574574         0.494954         2.371808
 C        -2.030734         1.869817         2.868699
 C        -0.774596         2.642946         2.681230
 C         0.341379         1.875539         2.073136
 H        -2.234206         4.504686         1.229004
 H        -2.109605         1.419206        -0.033541
 H        -0.630502         2.648854        -0.018601
 H         0.246115        -0.757718         0.808582
 H        -2.265766        -0.144667         1.881390
 H        -1.035371        -0.005858         3.190510
 H        -2.696850         2.112086         3.658629
 H        -0.645156         3.600694         3.189908
 H         0.990987         2.671475         1.481094
 H         1.076491         1.500031         2.819901
