19
Iteration:  1098charge 0 multiplicity 1
 O        -2.686510         3.870425         1.711457
 C        -1.829980         2.819964         1.641416
 C        -1.366920         2.030218         0.393693
 C        -0.595240         0.983570         1.207523
 O         0.121441        -0.151734         0.672230
 C        -1.681164         0.453204         2.254264
 C        -2.109410         1.739015         2.680684
 C        -0.790653         2.679018         2.636933
 C         0.314797         1.886544         2.051753
 H        -3.481075         3.584653         1.284748
 H        -2.240164         1.688704        -0.081387
 H        -0.829211         2.747036        -0.269827
 H         1.051718        -0.040452         0.913566
 H        -2.430776        -0.227361         1.756338
 H        -1.148983        -0.202799         2.953276
 H        -2.902224         2.041073         3.362076
 H        -0.569482         3.505258         3.332841
 H         1.116255         2.335616         1.414255
 H         0.852869         1.370122         2.916977
