19
Iteration:  1968
 O        -2.773483         3.920635         1.497690
 C        -1.952443         2.733527         1.643993
 C        -1.386805         1.974653         0.489718
 C        -0.513368         0.861120         1.253496
 O         0.197760        -0.099964         0.507860
 C        -1.601924         0.440985         2.328341
 C        -2.008111         1.802866         2.860672
 C        -0.792391         2.757628         2.647774
 C         0.346160         1.938853         2.074488
 H        -3.708908         3.797269         1.842419
 H        -2.129830         1.534237        -0.127132
 H        -0.763765         2.634989        -0.047122
 H        -0.323939        -0.938266         0.432280
 H        -2.493379         0.064640         1.874032
 H        -1.370333        -0.325235         3.073476
 H        -2.744473         2.071659         3.631405
 H        -0.708974         3.326770         3.583224
 H         0.980379         2.511466         1.404107
 H         1.067579         1.481480         2.768134
