19
Iteration:  1187
 O        -2.581442         3.999241         1.505867
 C        -1.908126         2.745994         1.635413
 C        -1.563394         1.893039         0.420563
 C        -0.551911         0.945441         1.218570
 O         0.226604        -0.063846         0.556207
 C        -1.562192         0.440242         2.331102
 C        -2.098394         1.777007         2.833247
 C        -0.848680         2.664457         2.738510
 C         0.271149         1.849298         2.154679
 H        -3.535187         3.993439         1.509858
 H        -2.348498         1.305979         0.013438
 H        -1.108381         2.573651        -0.319355
 H         0.253304         0.100044        -0.428667
 H        -2.351054        -0.183845         1.817292
 H        -1.007687        -0.187420         3.013082
 H        -2.595901         1.899996         3.812262
 H        -0.735408         3.488427         3.419133
 H         0.937234         2.431013         1.514980
 H         0.992122         1.230223         2.785189
