19
Iteration:  4221charge 0 multiplicity 1
 O        -2.920907         3.775531         1.417541
 C        -1.890907         2.762811         1.630101
 C        -1.461594         1.898016         0.416450
 C        -0.627694         0.907857         1.300746
 O         0.042387        -0.139582         0.579064
 C        -1.566284         0.467410         2.523590
 C        -1.794935         1.912718         2.955877
 C        -0.658685         2.836884         2.601353
 C         0.336063         1.840873         1.968959
 H        -2.892507         4.290173         2.222024
 H        -2.256683         1.303750        -0.075145
 H        -0.865375         2.619438        -0.190185
 H        -0.038699        -0.009970        -0.397481
 H        -2.477284         0.069277         2.020281
 H        -0.976308        -0.230943         3.107566
 H        -2.473780         2.239635         3.669788
 H        -0.260107         3.611934         3.245948
 H         0.878286         2.389682         1.161635
 H         1.055598         1.414753         2.637540
