19
Iteration:  4993
 O        -2.619229         3.945268         1.324390
 C        -2.007936         2.796761         1.777920
 C        -1.528234         1.888215         0.513192
 C        -0.575025         0.931903         1.203792
 O        -0.030547        -0.184085         0.496516
 C        -1.399686         0.408454         2.362499
 C        -1.959161         1.765319         2.949805
 C        -0.827359         2.776614         2.775423
 C         0.353872         1.993613         1.959441
 H        -3.560133         3.707200         1.385332
 H        -2.406762         1.546333        -0.097071
 H        -0.945831         2.583563        -0.185520
 H         0.640412        -0.526800         1.197638
 H        -2.254305        -0.164372         1.983520
 H        -0.783882        -0.220435         3.117701
 H        -2.609017         1.760961         3.781679
 H        -0.742250         3.674727         3.331199
 H         0.906113         2.610275         1.333888
 H         1.148348         1.521177         2.614740
