19
Iteration:  3593
 O        -2.681723         3.870580         1.556150
 C        -1.890297         2.745593         1.654123
 C        -1.536951         1.858238         0.412401
 C        -0.558925         0.954629         1.241277
 O         0.097745        -0.070424         0.558329
 C        -1.587669         0.504510         2.378531
 C        -2.111201         1.822847         2.765410
 C        -0.674014         2.772538         2.647308
 C         0.376496         1.852445         2.074557
 H        -3.610303         3.627008         1.608284
 H        -2.363225         1.329318        -0.121124
 H        -1.148611         2.433417        -0.415496
 H         1.093191         0.139938         0.535230
 H        -2.250355        -0.137452         1.824261
 H        -1.246296        -0.041840         3.247282
 H        -2.854238         1.931461         3.600467
 H        -0.734103         3.575624         3.369968
 H         1.169301         2.498669         1.633562
 H         0.757974         1.114585         2.911345
