19
Iteration:   561
 O        -2.750771         3.960109         1.517567
 C        -1.896376         2.813878         1.611056
 C        -1.271946         2.060578         0.499250
 C        -0.519623         0.944552         1.299960
 O         0.149677        -0.048729         0.485488
 C        -1.702194         0.353996         2.174072
 C        -2.121902         1.699223         2.683595
 C        -0.936885         2.610794         2.790675
 C         0.348485         1.820097         2.257045
 H        -2.342804         4.487301         2.219213
 H        -1.890397         1.639092        -0.213574
 H        -0.489808         2.550530        -0.037953
 H         0.707508         0.624326        -0.022817
 H        -2.330544        -0.170611         1.480048
 H        -1.317498        -0.417182         2.883552
 H        -2.997664         1.609479         3.330545
 H        -0.737955         3.110264         3.736928
 H         1.076240         2.483375         1.772635
 H         0.812643         1.263426         3.121244
