19
Iteration:  3638
 O        -2.762380         3.936350         1.456321
 C        -1.962829         2.756632         1.715769
 C        -1.463326         1.953387         0.498509
 C        -0.527637         0.970696         1.294303
 O         0.055702        -0.150700         0.572198
 C        -1.517706         0.398387         2.347728
 C        -2.040356         1.772976         2.864348
 C        -0.802457         2.681072         2.695057
 C         0.399899         1.935140         2.052976
 H        -2.708884         3.897456         0.507035
 H        -2.278817         1.596515        -0.209659
 H        -0.880159         2.563645        -0.244970
 H         0.233984         0.042086        -0.389777
 H        -2.266832        -0.207244         1.820274
 H        -1.005814        -0.196850         3.065855
 H        -2.662039         1.979308         3.760489
 H        -0.506614         3.548165         3.348698
 H         1.077473         2.571300         1.394569
 H         0.946639         1.413180         2.989514
