19
Iteration:  3964
 O        -2.833986         3.797746         1.509651
 C        -1.850168         2.807304         1.593324
 C        -1.408566         1.904273         0.431203
 C        -0.537617         0.961686         1.301243
 O         0.023494        -0.131579         0.522073
 C        -1.536223         0.464886         2.326238
 C        -1.937269         1.879150         2.746310
 C        -0.729065         2.756584         2.702708
 C         0.336280         1.968669         2.088126
 H        -3.309113         3.831191         2.331317
 H        -2.306778         1.368129         0.100960
 H        -0.837345         2.244847        -0.439860
 H        -0.263869        -0.975595         0.992405
 H        -2.376034        -0.082757         1.879265
 H        -1.178083        -0.257532         3.131764
 H        -2.745465         1.896881         3.512278
 H        -0.589479         3.573356         3.415712
 H         1.063338         2.733673         1.639465
 H         1.139378         1.503823         2.758850
