19
Iteration:   234
 O        -2.498435         4.157452         1.570441
 C        -2.023482         2.781461         1.686475
 C        -1.506323         1.902607         0.494403
 C        -0.518698         0.959912         1.259661
 O         0.279105         0.002843         0.430342
 C        -1.608410         0.340105         2.210607
 C        -2.170877         1.619378         2.813859
 C        -0.933245         2.592839         2.714392
 C         0.286005         1.924629         2.167731
 H        -3.326323         3.887386         1.141527
 H        -2.155422         1.349612        -0.103403
 H        -0.924960         2.474636        -0.247640
 H         0.632037        -0.733512         1.012661
 H        -2.295630        -0.148689         1.576936
 H        -1.343070        -0.394686         2.996882
 H        -2.736749         1.576056         3.748711
 H        -0.780043         3.478903         3.305275
 H         0.930591         2.506124         1.566885
 H         0.893027         1.403999         2.932994
