19
Iteration:  3486charge 0 multiplicity 1
 O        -2.704735         3.918225         1.506509
 C        -1.952682         2.750111         1.661727
 C        -1.488222         1.953324         0.430721
 C        -0.524130         0.959838         1.262423
 O         0.173291        -0.025284         0.466831
 C        -1.537893         0.427712         2.345796
 C        -2.043329         1.802175         2.873428
 C        -0.815349         2.758572         2.653818
 C         0.346845         1.828438         2.087143
 H        -3.639714         3.684720         1.577235
 H        -2.276222         1.320256        -0.103690
 H        -0.913584         2.523109        -0.281317
 H         0.346667        -0.811017         1.120226
 H        -2.455941        -0.100720         1.833606
 H        -1.187258        -0.286201         3.149126
 H        -2.757583         1.794430         3.705977
 H        -0.666671         3.625576         3.286456
 H         1.090812         2.308447         1.545905
 H         0.822661         1.304328         2.915097
