19
Iteration:  3962charge 0 multiplicity 1
 O        -2.832976         3.794286         1.505501
 C        -1.848223         2.840851         1.590089
 C        -1.412863         1.913204         0.450943
 C        -0.549072         0.961450         1.297021
 O         0.024814        -0.147823         0.529823
 C        -1.514063         0.450102         2.321075
 C        -1.940773         1.867846         2.746140
 C        -0.744164         2.747531         2.694590
 C         0.338450         1.990830         2.078950
 H        -3.281311         3.851518         2.363134
 H        -2.290822         1.389380         0.120944
 H        -0.806076         2.287457        -0.396912
 H        -0.253195        -1.027350         1.002651
 H        -2.336259        -0.104391         1.892864
 H        -1.222529        -0.228441         3.088596
 H        -2.783121         1.949448         3.515569
 H        -0.584354         3.512191         3.440601
 H         1.066130         2.694882         1.647493
 H         1.147376         1.475409         2.713305
