19
Iteration:  1396charge 0 multiplicity 1
 O        -2.857859         3.812199         1.423526
 C        -1.828621         2.787938         1.741803
 C        -1.302322         2.034634         0.516967
 C        -0.519109         0.896718         1.247699
 O         0.057710        -0.091153         0.412468
 C        -1.619040         0.405613         2.329701
 C        -2.082535         1.858297         2.810857
 C        -0.726872         2.749634         2.752937
 C         0.356452         1.828342         2.233324
 H        -2.793682         4.139543         0.506792
 H        -2.111644         1.772756        -0.089510
 H        -0.690168         2.786225        -0.056369
 H        -0.448168        -0.067401        -0.357788
 H        -2.340269        -0.352081         1.905936
 H        -1.148532         0.011861         3.237905
 H        -2.553774         2.049769         3.798055
 H        -0.670632         3.523878         3.552031
 H         1.196251         2.260842         1.769956
 H         0.701017         1.000811         2.869667
