19
Iteration:  4060charge 0 multiplicity 1
 O        -2.772577         3.881073         1.528712
 C        -1.941084         2.681107         1.642942
 C        -1.452620         1.849388         0.455820
 C        -0.571665         0.925132         1.238087
 O        -0.027336        -0.143915         0.508028
 C        -1.488853         0.418299         2.418641
 C        -1.971040         1.796085         2.895888
 C        -0.839112         2.799178         2.619639
 C         0.381602         2.015122         2.042321
 H        -2.211356         4.646532         1.369697
 H        -2.317222         1.502373        -0.106497
 H        -0.762560         2.330460        -0.290527
 H         0.941731        -0.269707         0.846273
 H        -2.272927        -0.155691         1.869331
 H        -0.959243        -0.220023         3.195727
 H        -2.702121         2.101254         3.621658
 H        -0.632835         3.749570         3.114391
 H         0.938393         2.612466         1.294385
 H         1.029981         1.489144         2.848280
