19
Iteration:  3684
 O        -2.904324         3.804525         1.525081
 C        -1.869148         2.767956         1.584894
 C        -1.347311         1.970540         0.468254
 C        -0.562587         0.875020         1.312661
 O         0.071004        -0.109996         0.533972
 C        -1.617338         0.410848         2.378531
 C        -1.947242         1.848763         2.874198
 C        -0.777194         2.782494         2.591621
 C         0.362231         1.867228         2.126851
 H        -2.499374         4.690559         1.544584
 H        -2.077395         1.433416        -0.194044
 H        -0.735116         2.566713        -0.196667
 H         0.364278         0.302974        -0.238330
 H        -2.550919        -0.085959         1.998078
 H        -1.246429        -0.193257         3.191319
 H        -2.663913         2.129233         3.604399
 H        -0.467955         3.603792         3.196793
 H         0.988504         2.319068         1.396468
 H         0.990727         1.237279         2.823844
