19
Iteration:  1859
 O        -2.712465         3.874182         1.569537
 C        -1.876138         2.773785         1.653508
 C        -1.449156         2.014873         0.378994
 C        -0.550444         0.956440         1.234045
 O         0.165335        -0.213049         0.704085
 C        -1.587366         0.515166         2.223140
 C        -1.998948         1.787009         2.860111
 C        -0.822028         2.698351         2.682896
 C         0.328087         1.959200         2.050104
 H        -3.621586         3.621848         1.814952
 H        -2.191069         1.381580        -0.168785
 H        -0.984064         2.607652        -0.392740
 H        -0.099617        -0.403346        -0.138320
 H        -2.339181         0.086008         1.640504
 H        -1.151207        -0.248040         2.868806
 H        -2.957671         2.016807         3.380658
 H        -0.584972         3.480935         3.464373
 H         1.077468         2.464633         1.462899
 H         0.763759         1.357423         2.817386
