19
Iteration:   620
 O        -2.813597         3.919938         1.652133
 C        -1.849705         2.886936         1.605551
 C        -1.212390         2.035444         0.486163
 C        -0.573674         0.980895         1.301828
 O         0.155460        -0.042120         0.547285
 C        -1.702138         0.341919         2.036881
 C        -2.170029         1.736686         2.666186
 C        -0.855279         2.625924         2.829259
 C         0.337933         1.767591         2.258755
 H        -2.630606         4.265175         0.769674
 H        -2.073812         1.576164        -0.142064
 H        -0.493629         2.569652        -0.201380
 H         1.002963         0.270545         0.378275
 H        -2.478469        -0.049903         1.299585
 H        -1.463822        -0.387850         2.788364
 H        -2.852111         1.731334         3.479912
 H        -0.574026         3.275757         3.652823
 H         1.101786         2.476655         1.785085
 H         0.961278         1.123958         2.903963
