19
Iteration:   169
 O        -2.953920         3.878607         1.468853
 C        -1.875126         2.852996         1.662855
 C        -1.230786         2.065360         0.468028
 C        -0.509672         0.972413         1.331096
 O         0.044639        -0.048604         0.493171
 C        -1.654036         0.424948         2.166258
 C        -1.956304         1.719798         2.806635
 C        -0.698922         2.745085         2.741927
 C         0.402070         1.762815         2.259781
 H        -3.725313         3.321601         1.381544
 H        -1.953134         1.568253        -0.260983
 H        -0.427077         2.654735        -0.054129
 H        -0.457245        -0.100194        -0.289592
 H        -2.435689        -0.100524         1.620243
 H        -1.276887        -0.330878         2.915666
 H        -2.516625         1.737323         3.718451
 H        -0.754615         3.452325         3.545139
 H         1.247742         2.246239         1.767408
 H         0.797035         1.159447         3.136400
