19
Iteration:  2414charge 0 multiplicity 1
 O        -2.858971         3.874806         1.434562
 C        -1.924165         2.801601         1.692620
 C        -1.408305         1.918449         0.423750
 C        -0.571037         0.916457         1.265015
 O         0.151866        -0.150423         0.545360
 C        -1.613103         0.453067         2.389001
 C        -1.939870         1.865215         2.921546
 C        -0.724514         2.782230         2.624467
 C         0.364276         1.869966         2.100628
 H        -3.606161         3.329400         1.739621
 H        -2.105192         1.791191        -0.346792
 H        -0.620843         2.479071        -0.042197
 H        -0.028862        -0.017191        -0.465827
 H        -2.506775        -0.065422         1.866332
 H        -1.180783        -0.104332         3.235627
 H        -2.428456         2.158422         3.823957
 H        -0.667937         3.477121         3.463156
 H         1.039001         2.369716         1.343729
 H         0.897590         1.109387         2.811405
