19
Iteration:  1930charge 0 multiplicity 1
 O        -2.633467         3.822701         1.390345
 C        -1.890301         2.761613         1.684391
 C        -1.490829         1.899008         0.480028
 C        -0.572457         0.984984         1.249556
 O        -0.006925         0.063150         0.385625
 C        -1.516191         0.422116         2.431569
 C        -1.979262         1.791721         2.857396
 C        -0.852370         2.730683         2.754854
 C         0.366228         1.845541         2.186217
 H        -3.296262         3.586477         0.722095
 H        -2.341106         1.450507        -0.094941
 H        -1.054549         2.516500        -0.373098
 H         0.609621        -0.437554         0.846501
 H        -2.419631        -0.150312         2.006782
 H        -0.846753        -0.189419         3.055635
 H        -2.799659         1.969432         3.512607
 H        -0.572013         3.416121         3.505349
 H         1.095378         2.510128         1.686181
 H         0.769228         1.333882         3.094567
