19
Iteration:   711
 O        -2.690823         3.919466         1.632040
 C        -1.924418         2.751679         1.604049
 C        -1.236413         2.097877         0.417456
 C        -0.483614         0.968353         1.190373
 O         0.253614        -0.132169         0.672899
 C        -1.742760         0.411776         2.096856
 C        -2.110521         1.727453         2.714476
 C        -0.904710         2.656430         2.759013
 C         0.213400         1.817005         2.195498
 H        -2.854893         4.267005         2.502756
 H        -2.065310         1.721163        -0.270857
 H        -0.571061         2.802550        -0.230173
 H         0.664078         0.114085        -0.214773
 H        -2.640205         0.259246         1.542860
 H        -1.435435        -0.401197         2.804893
 H        -3.074590         1.835470         3.290648
 H        -0.840516         3.350357         3.614520
 H         0.940043         2.520628         1.676504
 H         0.821893         1.161536         2.788348
