19
Iteration:  2252
 O        -2.660947         3.827040         1.641976
 C        -1.956923         2.675162         1.663411
 C        -1.388574         1.932817         0.403357
 C        -0.569740         1.004899         1.222257
 O         0.186345        -0.171898         0.655698
 C        -1.573059         0.465311         2.317599
 C        -2.044134         1.826317         2.841369
 C        -0.799544         2.826195         2.589483
 C         0.299346         1.973622         2.006569
 H        -3.660220         3.682330         1.610555
 H        -2.232248         1.391795        -0.241048
 H        -0.861641         2.560310        -0.301780
 H        -0.403472        -0.477099        -0.127839
 H        -2.455482        -0.000809         1.951902
 H        -1.038573        -0.118075         3.063116
 H        -2.790204         1.817195         3.666941
 H        -0.581584         3.650046         3.255480
 H         0.811946         2.597795         1.363013
 H         0.885254         1.363050         2.589399
