19
Iteration:  5000
 O        -2.603494         3.963733         1.357768
 C        -1.918167         2.741110         1.711014
 C        -1.539386         1.827021         0.452121
 C        -0.602089         0.903007         1.240174
 O        -0.021414        -0.122415         0.527307
 C        -1.409509         0.401042         2.339007
 C        -1.955308         1.737267         2.984938
 C        -0.784411         2.773691         2.763088
 C         0.273105         2.037133         1.955756
 H        -3.580056         4.040234         1.518364
 H        -2.414905         1.429086        -0.085650
 H        -0.989679         2.526315        -0.143900
 H         0.655717        -0.614893         1.130047
 H        -2.244863        -0.157658         1.977657
 H        -0.837683        -0.151037         3.095951
 H        -2.751109         1.767400         3.758229
 H        -0.657242         3.646352         3.403159
 H         0.748243         2.792502         1.222881
 H         0.976993         1.617815         2.711444
