19
Iteration:  2047
 O        -2.638942         3.884460         1.387207
 C        -2.000112         2.737648         1.668382
 C        -1.445735         1.931250         0.521179
 C        -0.513650         0.928941         1.325474
 O         0.100141        -0.027395         0.458963
 C        -1.543067         0.380260         2.393059
 C        -2.002397         1.736837         2.919674
 C        -0.842419         2.761067         2.735653
 C         0.336666         1.940880         2.074358
 H        -3.467625         3.766682         0.825733
 H        -2.138383         1.371077        -0.176714
 H        -0.772844         2.563113        -0.072045
 H        -0.305472         0.121418        -0.385681
 H        -2.396138        -0.103475         1.943681
 H        -1.089115        -0.244979         3.193932
 H        -2.529611         1.851738         3.871666
 H        -0.691996         3.578149         3.470061
 H         1.057712         2.468687         1.410104
 H         0.765150         1.314110         2.840898
