19
Iteration:  3657
 O        -2.776326         3.749449         1.468088
 C        -1.811918         2.749279         1.680043
 C        -1.490709         1.950374         0.470414
 C        -0.532187         0.977385         1.200586
 O        -0.002499        -0.134064         0.595987
 C        -1.509332         0.523864         2.269736
 C        -2.001744         1.805843         2.786624
 C        -0.796808         2.757083         2.805052
 C         0.375112         1.937246         2.172772
 H        -2.558214         4.218977         0.653412
 H        -2.439309         1.363508         0.262339
 H        -1.057665         2.585398        -0.419292
 H         0.008114         0.009406        -0.328465
 H        -2.331408        -0.057573         1.902287
 H        -1.025068         0.076779         3.179194
 H        -2.799146         1.811625         3.588263
 H        -0.562835         3.498302         3.589680
 H         1.091120         2.501620         1.438147
 H         1.018988         1.128308         2.606626
