19
Iteration:   669
 O        -2.689979         3.900277         1.369007
 C        -1.817585         2.771202         1.706164
 C        -1.302673         2.026876         0.488687
 C        -0.546658         0.977208         1.179788
 O         0.105515         0.052478         0.394498
 C        -1.627430         0.407062         2.213238
 C        -2.151959         1.659600         2.811766
 C        -0.931465         2.601969         2.923024
 C         0.243232         1.774839         2.309758
 H        -1.987859         4.576703         1.625338
 H        -2.062666         1.662123        -0.166243
 H        -0.661802         2.740489        -0.088158
 H         1.052466         0.331499         0.110020
 H        -2.260765        -0.213819         1.617324
 H        -1.145537        -0.332323         2.932673
 H        -3.104033         1.840336         3.382949
 H        -0.962747         3.351990         3.736223
 H         1.111753         2.334971         2.001121
 H         0.653219         1.236525         3.146365
