19
Iteration:  3647
 O        -2.747174         3.838596         1.435375
 C        -1.921807         2.772130         1.695818
 C        -1.504239         2.028452         0.536201
 C        -0.502602         1.005992         1.243325
 O         0.032727        -0.170695         0.591134
 C        -1.529711         0.451620         2.321616
 C        -2.030394         1.792124         2.838113
 C        -0.754095         2.661168         2.706615
 C         0.398916         1.891601         2.110815
 H        -2.751454         4.082104         0.514851
 H        -2.339279         1.317548         0.181093
 H        -1.132658         2.782080        -0.278973
 H         0.067435         0.025359        -0.373981
 H        -2.172541        -0.259868         1.853065
 H        -0.938749        -0.136158         3.031865
 H        -2.864262         1.947223         3.582267
 H        -0.793044         3.558935         3.347942
 H         0.982408         2.734555         1.542008
 H         1.174566         1.418593         2.866682
