19
Iteration:  3487charge 0 multiplicity 1
 O        -2.707279         3.917158         1.508374
 C        -1.949767         2.765899         1.657475
 C        -1.498046         1.950058         0.435860
 C        -0.516414         0.953815         1.261214
 O         0.175364        -0.030622         0.461671
 C        -1.533314         0.427663         2.342374
 C        -2.045234         1.798179         2.871275
 C        -0.809993         2.757616         2.647151
 C         0.334297         1.831460         2.103411
 H        -3.641421         3.675003         1.526143
 H        -2.305319         1.342905        -0.066684
 H        -0.901551         2.517262        -0.259601
 H         0.339590        -0.806313         1.100984
 H        -2.445018        -0.085301         1.825454
 H        -1.173465        -0.270810         3.149866
 H        -2.745957         1.783097         3.738134
 H        -0.634763         3.639065         3.272702
 H         1.113560         2.309870         1.560962
 H         0.809187         1.305946         2.908804
