19
Iteration:  4330
 O        -2.762189         3.946534         1.617543
 C        -1.978195         2.770429         1.663508
 C        -1.613206         1.737886         0.464377
 C        -0.571137         0.853907         1.309113
 O         0.062143        -0.126206         0.502202
 C        -1.494656         0.463218         2.446616
 C        -1.846566         1.901068         2.884945
 C        -0.711195         2.866808         2.564265
 C         0.358393         1.917056         1.884400
 H        -3.201325         4.011014         0.726471
 H        -2.542674         1.116747         0.435623
 H        -1.413689         2.143087        -0.587388
 H         0.471283        -0.646672         1.129325
 H        -2.322089        -0.174673         2.021512
 H        -0.887209        -0.129983         3.129520
 H        -2.472080         2.234491         3.713147
 H        -0.567565         3.722892         3.234399
 H         1.082151         2.475834         1.149014
 H         1.007513         1.402904         2.638808
