19
Iteration:  3168
 O        -2.663134         3.888656         1.356602
 C        -1.892971         2.796681         1.661018
 C        -1.375590         1.943891         0.471419
 C        -0.600729         0.902491         1.281705
 O         0.169760         0.009725         0.446036
 C        -1.582095         0.387154         2.341620
 C        -2.096072         1.777534         2.877548
 C        -0.805854         2.661032         2.842517
 C         0.355666         1.929420         2.181859
 H        -3.591310         3.731678         1.534566
 H        -2.348902         1.659295        -0.100172
 H        -0.644231         2.377464        -0.211222
 H        -0.481030        -0.617749        -0.060757
 H        -2.400454        -0.097732         1.852207
 H        -1.194430        -0.188453         3.113957
 H        -2.888188         1.916468         3.631022
 H        -0.774784         3.502243         3.513160
 H         0.743922         2.568920         1.314078
 H         1.134299         1.401140         2.788569
