19
Iteration:  1510charge 0 multiplicity 1
 O        -2.804986         3.786195         1.506413
 C        -1.885102         2.793177         1.694336
 C        -1.379862         1.977500         0.485547
 C        -0.566666         0.881735         1.288620
 O         0.174656        -0.083023         0.510251
 C        -1.673701         0.493127         2.262034
 C        -2.098724         1.862231         2.845685
 C        -0.716306         2.690630         2.752065
 C         0.393364         1.854952         2.103091
 H        -2.467435         4.615786         1.100416
 H        -2.221306         1.660252        -0.204241
 H        -0.804550         2.514549        -0.233039
 H        -0.411237        -0.592403        -0.079299
 H        -2.515052        -0.016567         1.755769
 H        -1.299839        -0.057370         3.197910
 H        -2.907777         1.915769         3.561399
 H        -0.549372         3.589039         3.390180
 H         0.989494         2.555437         1.385032
 H         1.074079         1.318661         2.800688
