19
Iteration:   255
 O        -2.473450         3.965833         1.528669
 C        -1.883391         2.702702         1.668191
 C        -1.473356         1.923312         0.504635
 C        -0.562567         0.940178         1.209013
 O         0.195674         0.048045         0.349921
 C        -1.626930         0.368056         2.266094
 C        -2.157052         1.731840         2.761010
 C        -0.938153         2.649041         2.885771
 C         0.235718         1.905211         2.210645
 H        -3.122869         3.982533         0.739346
 H        -2.321805         1.436688         0.052996
 H        -1.073173         2.504372        -0.346768
 H         1.062256        -0.187313         0.795570
 H        -2.230640        -0.376146         1.838783
 H        -1.099550        -0.092496         3.138068
 H        -3.034991         1.962027         3.375644
 H        -0.894804         3.291425         3.755667
 H         0.790085         2.662809         1.756644
 H         0.920911         1.355497         2.879009
