19
Iteration:  4637
 O        -2.878716         3.698438         1.424877
 C        -1.929149         2.709283         1.731765
 C        -1.535330         1.812066         0.608127
 C        -0.552427         0.907549         1.274686
 O        -0.020272        -0.071793         0.411142
 C        -1.596620         0.560533         2.445414
 C        -1.890176         1.894393         2.955169
 C        -0.672899         2.849457         2.508832
 C         0.479360         1.925077         1.981428
 H        -2.711721         4.510068         1.960803
 H        -2.317195         1.320851         0.023158
 H        -0.819541         2.342962        -0.077584
 H         0.740895        -0.489970         0.996421
 H        -2.483872         0.178677         1.834738
 H        -1.348563        -0.291019         3.089296
 H        -2.404251         2.305133         3.819642
 H        -0.480267         3.796842         3.060613
 H         1.198940         2.385333         1.240630
 H         1.039318         1.407741         2.712248
