19
Iteration:  4542charge 0 multiplicity 1
 O        -2.911106         3.699722         1.586826
 C        -1.872837         2.771669         1.631327
 C        -1.550057         1.915910         0.461610
 C        -0.587027         0.962137         1.208027
 O         0.030187        -0.160878         0.544835
 C        -1.509217         0.466075         2.431489
 C        -1.908974         1.955999         2.878715
 C        -0.647521         2.849106         2.563779
 C         0.392881         1.890609         1.966795
 H        -2.606002         4.461840         1.006976
 H        -2.492988         1.386775         0.186359
 H        -1.055644         2.511610        -0.324984
 H         0.420731        -0.651136         1.262307
 H        -2.367256        -0.056203         2.073882
 H        -1.048564        -0.236136         3.167964
 H        -2.522377         2.153715         3.792900
 H        -0.423395         3.698806         3.237705
 H         0.946744         2.408293         1.183276
 H         1.103004         1.357838         2.714357
