19
Iteration:  4324
 O        -2.782727         3.962893         1.631404
 C        -1.963791         2.816990         1.646004
 C        -1.656657         1.703200         0.461425
 C        -0.606710         0.896693         1.238502
 O         0.116326        -0.089729         0.543581
 C        -1.496633         0.451448         2.445757
 C        -1.904262         1.950373         2.896785
 C        -0.655851         2.805092         2.564569
 C         0.356775         1.872894         1.867226
 H        -3.176955         3.912280         0.743261
 H        -2.526607         1.065617         0.309855
 H        -1.332469         1.918467        -0.545693
 H         0.664576        -0.699925         1.141589
 H        -2.369273        -0.129770         2.198431
 H        -0.902852        -0.229159         3.132014
 H        -2.477485         2.186789         3.830584
 H        -0.343103         3.601943         3.244718
 H         0.911571         2.472742         1.228065
 H         1.013752         1.380999         2.586111
