19
Iteration:  3626charge 0 multiplicity 1
 O        -2.745943         3.976740         1.504241
 C        -1.960091         2.751051         1.675051
 C        -1.380169         1.887903         0.450020
 C        -0.592608         0.854455         1.274549
 O         0.085662        -0.107527         0.561508
 C        -1.547479         0.393353         2.377046
 C        -1.962029         1.745871         2.892424
 C        -0.803358         2.790069         2.657718
 C         0.268053         1.944440         2.043295
 H        -3.001658         4.142557         0.557727
 H        -2.153689         1.372155        -0.198095
 H        -0.553761         2.501896        -0.017503
 H         0.441989         0.397960        -0.262564
 H        -2.393921        -0.148689         1.984120
 H        -1.149833        -0.226910         3.163170
 H        -2.569832         1.785127         3.848725
 H        -0.717255         3.544594         3.493290
 H         1.048086         2.406743         1.299167
 H         1.016263         1.310965         2.757785
