19
Iteration:  2298
 O        -2.836515         3.866234         1.436702
 C        -1.848040         2.793718         1.704832
 C        -1.465138         1.883792         0.573118
 C        -0.520064         0.907837         1.247745
 O         0.119189        -0.055878         0.445789
 C        -1.554558         0.426556         2.323009
 C        -1.976267         1.851776         2.837846
 C        -0.717231         2.815304         2.704179
 C         0.375258         1.906600         2.080405
 H        -3.657570         3.334276         1.455024
 H        -2.366899         1.398295         0.079600
 H        -1.043399         2.425125        -0.313914
 H        -0.320256        -1.000148         0.491556
 H        -2.368145        -0.085985         1.865700
 H        -1.169756        -0.095569         3.245730
 H        -2.729569         2.073373         3.551967
 H        -0.497772         3.623118         3.411959
 H         1.221404         2.328286         1.554709
 H         0.566947         1.416937         2.988527
