19
Iteration:  4937
 O        -2.869463         3.630994         1.675305
 C        -1.777219         2.808647         1.577780
 C        -1.450613         1.857291         0.395515
 C        -0.557273         0.851023         1.286036
 O         0.069736        -0.023814         0.440438
 C        -1.701524         0.537611         2.448888
 C        -1.877081         1.970003         2.886079
 C        -0.708230         2.838407         2.499827
 C         0.334855         1.871069         2.107063
 H        -2.731086         4.345408         0.977889
 H        -2.386651         1.352715         0.010860
 H        -0.976575         2.402504        -0.477188
 H         0.515023        -0.797674         0.909373
 H        -2.584420         0.076854         2.063982
 H        -1.265475        -0.202335         3.229966
 H        -2.756134         2.280360         3.487678
 H        -0.364917         3.653201         3.126548
 H         1.080283         2.226702         1.436328
 H         0.782862         1.535898         3.079626
