19
Iteration:  1109charge 0 multiplicity 1
 O        -2.709743         3.784855         1.671721
 C        -1.780973         2.770742         1.613572
 C        -1.395710         2.115022         0.390456
 C        -0.572388         0.903239         1.219925
 O         0.052886        -0.199235         0.624496
 C        -1.606319         0.476968         2.141253
 C        -2.033165         1.858859         2.761007
 C        -0.804168         2.752545         2.732171
 C         0.242854         1.889603         2.123716
 H        -3.514700         3.538928         1.180436
 H        -2.194995         1.728108        -0.157993
 H        -0.665227         2.576625        -0.315130
 H         1.067957        -0.197255         0.872925
 H        -2.355277        -0.249963         1.705250
 H        -1.013962        -0.009184         2.937974
 H        -2.834159         2.034263         3.511041
 H        -0.620082         3.575426         3.454040
 H         0.886445         2.600039         1.543374
 H         0.824633         1.226512         2.859078
