19
Iteration:  3570
 O        -2.819091         3.911783         1.431088
 C        -1.899418         2.843281         1.637340
 C        -1.468119         1.983256         0.465108
 C        -0.518099         0.894893         1.265109
 O         0.043869        -0.139224         0.542813
 C        -1.499268         0.395238         2.278275
 C        -1.944784         1.797909         2.868499
 C        -0.770650         2.689350         2.679275
 C         0.320451         1.908880         2.106335
 H        -3.258875         4.229770         2.256583
 H        -2.315618         1.527821        -0.067873
 H        -0.959351         2.418554        -0.434634
 H         0.850634        -0.330711         0.933643
 H        -2.280560        -0.161811         1.801381
 H        -1.105619        -0.291146         3.017626
 H        -2.686351         1.975125         3.644355
 H        -0.668548         3.561989         3.276154
 H         1.016150         2.589875         1.492672
 H         0.842077         1.365407         2.999913
