19
Iteration:  3393charge 0 multiplicity 1
 O        -2.753281         3.773751         1.548994
 C        -1.870888         2.739530         1.678063
 C        -1.366472         1.906268         0.500541
 C        -0.650410         0.837357         1.253586
 O         0.121397        -0.015341         0.429561
 C        -1.677170         0.419979         2.356397
 C        -2.036732         1.835319         2.793448
 C        -0.735458         2.774332         2.725830
 C         0.272432         1.897092         2.147931
 H        -2.587578         4.289179         0.715219
 H        -2.086720         1.378432        -0.155339
 H        -0.649253         2.508122        -0.230422
 H         0.828974         0.539309         0.283447
 H        -2.457294        -0.240927         2.002758
 H        -1.176006        -0.131117         3.214906
 H        -2.803678         2.166464         3.532377
 H        -0.487380         3.743978         3.178490
 H         0.992553         2.570745         1.493383
 H         0.978912         1.511809         2.953936
