19
Iteration:  1464charge 0 multiplicity 1
 O        -2.738410         4.001703         1.721007
 C        -1.958053         2.758277         1.600691
 C        -1.485254         1.926990         0.374637
 C        -0.534185         0.936071         1.142319
 O         0.320091        -0.147517         0.652615
 C        -1.595952         0.454416         2.319716
 C        -2.137066         1.825028         2.701461
 C        -0.824784         2.678093         2.691228
 C         0.270782         1.818129         2.045339
 H        -1.991044         4.639900         1.872086
 H        -2.122969         1.510861        -0.365361
 H        -0.927590         2.559209        -0.283034
 H        -0.325863        -0.975077         0.624236
 H        -2.407114        -0.086454         1.810292
 H        -1.041363        -0.099697         3.162356
 H        -2.839998         2.012314         3.522215
 H        -0.593374         3.616781         3.153100
 H         0.883558         2.495317         1.382358
 H         0.909287         1.295944         2.755625
