19
Iteration:  3148charge 0 multiplicity 1
 O        -2.657824         3.810908         1.505918
 C        -1.800395         2.764595         1.645554
 C        -1.364276         1.943225         0.471263
 C        -0.460261         0.959232         1.271251
 O         0.123995        -0.003085         0.451422
 C        -1.648702         0.443901         2.353843
 C        -2.117010         1.795369         2.693425
 C        -0.845111         2.692882         2.782542
 C         0.300032         1.911690         2.141501
 H        -3.528932         3.715470         1.948960
 H        -2.189475         1.325403         0.006307
 H        -0.877345         2.625793        -0.285641
 H        -0.421010        -0.849664         0.587817
 H        -2.391538        -0.198873         1.929779
 H        -1.089309         0.002612         3.135544
 H        -2.931746         2.177148         3.317450
 H        -0.694144         3.543446         3.430706
 H         0.852620         2.657147         1.529902
 H         0.730073         1.349451         2.873598
