19
Iteration:  2829
 O        -2.711778         3.825314         1.465315
 C        -1.859198         2.764287         1.570520
 C        -1.346288         1.961082         0.459347
 C        -0.557645         0.992513         1.298752
 O         0.025927        -0.013142         0.452395
 C        -1.663031         0.411361         2.300599
 C        -1.992123         1.778635         2.905077
 C        -0.801481         2.728250         2.712074
 C         0.369635         1.859383         2.173104
 H        -3.649864         3.522199         1.424436
 H        -2.109582         1.456597        -0.060354
 H        -0.836364         2.611375        -0.226814
 H         0.604174        -0.643049         1.000953
 H        -2.548196         0.088277         1.777929
 H        -1.164964        -0.259545         3.030426
 H        -2.703165         2.200575         3.625305
 H        -0.694543         3.684563         3.254741
 H         1.103137         2.486606         1.530420
 H         0.851748         1.314599         3.030361
