19
Iteration:  2857
 O        -2.780210         3.918813         1.602446
 C        -1.864614         2.789111         1.604634
 C        -1.312385         1.926785         0.470074
 C        -0.512119         0.940875         1.334098
 O         0.033606        -0.174054         0.490701
 C        -1.630734         0.413126         2.263192
 C        -2.091111         1.802942         2.709501
 C        -0.785115         2.754230         2.733575
 C         0.368330         1.958300         2.098234
 H        -3.705976         3.645958         1.548982
 H        -2.037217         1.450038        -0.330963
 H        -0.668375         2.581664        -0.287779
 H         0.806253        -0.641631         1.021098
 H        -2.453174        -0.090830         1.698042
 H        -1.158752        -0.166258         3.111975
 H        -2.730551         2.174528         3.478975
 H        -0.570534         3.434350         3.585627
 H         0.978410         2.542259         1.430169
 H         1.089918         1.531428         2.803171
