19
Iteration:  1514
 O        -2.838416         3.785076         1.475055
 C        -1.866462         2.785022         1.698843
 C        -1.360690         1.965469         0.503474
 C        -0.549880         0.875663         1.242001
 O         0.178957        -0.058639         0.476175
 C        -1.706478         0.511566         2.314306
 C        -2.090262         1.884654         2.871658
 C        -0.737677         2.681643         2.785715
 C         0.408071         1.823262         2.092156
 H        -2.416014         4.527064         1.022588
 H        -2.219494         1.672434        -0.160814
 H        -0.709753         2.525182        -0.272918
 H        -0.445649        -0.542223        -0.093701
 H        -2.449434        -0.086843         1.752975
 H        -1.313281         0.051184         3.182526
 H        -2.899306         2.027264         3.630169
 H        -0.563888         3.491591         3.479724
 H         1.003872         2.406539         1.390557
 H         1.080859         1.372354         2.867495
