19
Iteration:  4508
 O        -2.994187         3.751217         1.512506
 C        -1.837072         2.769296         1.643372
 C        -1.426612         1.860217         0.521340
 C        -0.618058         0.845955         1.296195
 O         0.001181        -0.007166         0.371111
 C        -1.555574         0.432958         2.521476
 C        -1.849247         2.012757         2.973246
 C        -0.584476         2.897984         2.552827
 C         0.378383         1.805787         2.060011
 H        -3.238531         3.937441         0.569429
 H        -2.205621         1.228193         0.010657
 H        -0.985482         2.387454        -0.379527
 H         0.321296        -0.654755         0.919948
 H        -2.472874         0.099772         2.090335
 H        -1.133454        -0.347413         3.189659
 H        -2.605223         2.159127         3.696577
 H        -0.360276         3.854064         3.048258
 H         1.091748         2.158216         1.253996
 H         1.056654         1.178941         2.753818
