19
Iteration:  2348charge 0 multiplicity 1
 O        -2.658726         4.010350         1.517833
 C        -1.928447         2.780851         1.653292
 C        -1.518626         1.894751         0.516017
 C        -0.587845         0.880988         1.280046
 O         0.131070        -0.086103         0.462713
 C        -1.446660         0.382931         2.435534
 C        -2.080535         1.747039         2.868136
 C        -0.853040         2.797381         2.632063
 C         0.311799         1.884757         2.004630
 H        -3.512930         3.873419         1.003703
 H        -2.321172         1.478910        -0.120626
 H        -0.821476         2.290088        -0.174940
 H         0.675320        -0.677979         1.014518
 H        -2.156441        -0.413700         1.969729
 H        -0.817735        -0.141362         3.179757
 H        -2.757315         1.955015         3.700910
 H        -0.720915         3.713618         3.174770
 H         0.667863         2.590108         1.198323
 H         1.123522         1.526169         2.798414
