19
Iteration:  4976charge 0 multiplicity 1
 O        -2.782644         3.878826         1.395105
 C        -1.931097         2.745142         1.691445
 C        -1.467343         2.004728         0.534957
 C        -0.527953         0.962423         1.294712
 O        -0.039416        -0.164613         0.437469
 C        -1.507015         0.482720         2.430214
 C        -1.983684         1.789607         2.932550
 C        -0.712132         2.729454         2.613427
 C         0.409240         1.904715         2.026249
 H        -3.493598         3.652911         0.794574
 H        -2.281648         1.432308         0.112454
 H        -1.072448         2.760140        -0.123668
 H         0.656034        -0.676719         0.930595
 H        -2.286728        -0.252036         2.071144
 H        -0.938766         0.099244         3.233234
 H        -2.547153         2.056258         3.865957
 H        -0.559030         3.469579         3.457141
 H         1.041114         2.587576         1.327494
 H         0.945849         1.418860         2.829653
