19
Iteration:  1739charge 0 multiplicity 1
 O        -2.719768         3.812292         1.697017
 C        -1.874307         2.726645         1.564920
 C        -1.375939         1.976105         0.356979
 C        -0.554917         0.953678         1.224011
 O         0.187076        -0.160197         0.656069
 C        -1.664303         0.503529         2.296333
 C        -2.088357         1.886100         2.723331
 C        -0.863516         2.666871         2.713884
 C         0.260796         1.856426         2.111126
 H        -2.289530         4.710203         1.609234
 H        -2.259280         1.488202        -0.149911
 H        -0.902866         2.636819        -0.382388
 H         0.825553         0.235142        -0.100544
 H        -2.422659        -0.107948         1.901879
 H        -1.112235        -0.092356         3.079170
 H        -2.872983         2.102695         3.426914
 H        -0.677093         3.599070         3.197854
 H         0.930192         2.296307         1.334391
 H         0.901001         1.255096         2.670579
