19
Iteration:  3177
 O        -2.687358         3.952497         1.331236
 C        -1.919078         2.753383         1.717077
 C        -1.409860         1.974909         0.495956
 C        -0.547462         0.907138         1.318419
 O         0.170821         0.023880         0.513132
 C        -1.590514         0.358257         2.312868
 C        -2.017819         1.750693         2.869839
 C        -0.812423         2.668544         2.766342
 C         0.270374         1.871790         2.140862
 H        -3.638501         3.867241         1.304032
 H        -2.147440         1.485947        -0.202685
 H        -0.770752         2.578904        -0.093370
 H        -0.514338        -0.327690        -0.169220
 H        -2.387588        -0.215241         1.779935
 H        -1.039237        -0.339664         2.969521
 H        -2.475886         2.024643         3.790955
 H        -0.597355         3.510167         3.411657
 H         0.941557         2.485197         1.423145
 H         0.899335         1.298059         2.931902
