19
Iteration:  2444
 O        -2.707111         3.821626         1.434952
 C        -1.889323         2.740240         1.642837
 C        -1.433999         1.914378         0.537593
 C        -0.541223         1.004679         1.289539
 O         0.032064        -0.013763         0.498355
 C        -1.508223         0.429437         2.377820
 C        -1.940613         1.815549         2.817827
 C        -0.791549         2.779493         2.658942
 C         0.337744         1.903158         2.129106
 H        -3.590263         3.465112         1.577662
 H        -2.318994         1.483186         0.064769
 H        -0.843728         2.410507        -0.429149
 H        -0.538697        -0.724565         0.456466
 H        -2.347451        -0.234326         1.959748
 H        -1.052966        -0.194574         3.183274
 H        -2.860602         2.150798         3.250553
 H        -0.746744         3.479955         3.475267
 H         1.103304         2.432067         1.466259
 H         0.888644         1.173029         2.727557
