19
Iteration:  1907
 O        -2.730263         3.982954         1.510573
 C        -1.967400         2.779543         1.697779
 C        -1.435402         1.898982         0.509044
 C        -0.527515         0.880753         1.230611
 O         0.100905        -0.092272         0.454660
 C        -1.523061         0.389511         2.422327
 C        -2.059330         1.791837         2.844636
 C        -0.861724         2.778677         2.648093
 C         0.343755         1.821387         2.126187
 H        -3.162345         4.064151         0.624720
 H        -2.247634         1.572687        -0.206099
 H        -0.838161         2.564651        -0.172614
 H         1.105207         0.022008         0.253116
 H        -2.357902        -0.113484         1.869794
 H        -1.060251        -0.232272         3.217021
 H        -2.559118         1.985444         3.755958
 H        -0.657633         3.631254         3.227402
 H         1.050400         2.472191         1.566442
 H         0.834467         1.094189         2.791833
