19
Iteration:  4548charge 0 multiplicity 1
 O        -2.882954         3.727487         1.581615
 C        -1.860551         2.737196         1.676861
 C        -1.524380         1.886139         0.442058
 C        -0.585803         0.975224         1.236774
 O        -0.010174        -0.164625         0.557165
 C        -1.497204         0.481879         2.405818
 C        -1.884286         1.846576         2.899071
 C        -0.695674         2.898569         2.578421
 C         0.368015         1.921701         1.942005
 H        -2.402751         4.459621         1.167688
 H        -2.470330         1.455163         0.121482
 H        -1.073092         2.389894        -0.448980
 H         0.459722        -0.691376         1.313450
 H        -2.436928        -0.034817         2.033350
 H        -0.939175        -0.140893         3.107524
 H        -2.655778         2.169452         3.565627
 H        -0.417881         3.836947         3.049557
 H         0.999582         2.463834         1.178755
 H         1.050482         1.511606         2.631416
