19
Iteration:  4746
 O        -2.792841         3.741512         1.414741
 C        -1.933388         2.698374         1.651728
 C        -1.627220         1.838886         0.490457
 C        -0.629064         0.950566         1.249499
 O         0.086429         0.049145         0.449991
 C        -1.477164         0.498927         2.513386
 C        -1.949530         1.921512         2.955368
 C        -0.701630         2.730817         2.674128
 C         0.370926         1.850393         1.965093
 H        -2.168773         4.469296         1.287522
 H        -2.552120         1.350639         0.209868
 H        -1.161695         2.400521        -0.334037
 H         0.416979        -0.766076         0.818538
 H        -2.295796        -0.216553         2.163385
 H        -0.812496         0.097918         3.271538
 H        -2.643947         2.275747         3.783162
 H        -0.430961         3.693428         3.122396
 H         1.132289         2.369636         1.300218
 H         0.850404         1.201072         2.650286
