19
Iteration:   631
 O        -2.755987         3.935612         1.527454
 C        -1.879149         2.799537         1.713092
 C        -1.232263         2.039425         0.500804
 C        -0.500563         0.941704         1.330677
 O         0.105700         0.052647         0.451698
 C        -1.719196         0.366350         2.131744
 C        -2.165226         1.683739         2.734514
 C        -0.857849         2.598896         2.782248
 C         0.351536         1.795987         2.261019
 H        -2.822272         4.538215         0.798206
 H        -1.918736         1.574557        -0.302858
 H        -0.395251         2.603914        -0.004890
 H         1.038334         0.365275         0.354857
 H        -2.455854        -0.177703         1.458268
 H        -1.381242        -0.369627         2.854919
 H        -3.025168         1.849016         3.327996
 H        -0.794820         3.211115         3.676231
 H         1.275322         2.213780         1.771529
 H         0.585647         1.074378         3.065256
