19
Iteration:  2399charge 0 multiplicity 1
 O        -2.783264         3.824565         1.517939
 C        -1.934663         2.746286         1.643584
 C        -1.374690         1.988639         0.493626
 C        -0.597739         0.875856         1.297747
 O         0.103260        -0.127886         0.609761
 C        -1.615724         0.449916         2.339974
 C        -1.894953         1.844355         2.859451
 C        -0.740542         2.804556         2.602369
 C         0.308623         1.883186         2.026348
 H        -3.718684         3.683915         1.580694
 H        -2.165754         1.392101        -0.053427
 H        -0.837477         2.741379        -0.306840
 H         0.501905         0.173326        -0.170248
 H        -2.573656         0.009233         1.964086
 H        -1.200879        -0.388841         2.953118
 H        -2.726739         1.956524         3.592689
 H        -0.466700         3.728669         3.104945
 H         1.105767         2.334787         1.364516
 H         0.836493         1.505128         2.887980
