19
Iteration:  4143charge 0 multiplicity 1
 O        -2.710260         3.884540         1.533012
 C        -1.991891         2.724066         1.687026
 C        -1.455907         1.949954         0.510683
 C        -0.515956         0.921868         1.317443
 O        -0.055493        -0.158814         0.437306
 C        -1.448360         0.416389         2.500758
 C        -1.964886         1.823418         2.829538
 C        -0.811528         2.771408         2.583694
 C         0.386543         1.992079         1.973033
 H        -3.252857         3.826810         0.724025
 H        -2.304345         1.528288        -0.088638
 H        -0.888226         2.591663        -0.176181
 H         0.116164        -0.935634         0.899469
 H        -2.176234        -0.384868         2.240094
 H        -0.990860         0.030916         3.397009
 H        -2.678941         2.103593         3.678131
 H        -0.353166         3.629647         3.074850
 H         1.037419         2.497327         1.227685
 H         1.038004         1.711286         2.782026
