19
Iteration:   739charge 0 multiplicity 1
 O        -2.726126         3.913595         1.528848
 C        -1.870432         2.806208         1.678869
 C        -1.271411         2.110181         0.426770
 C        -0.496671         0.999594         1.185511
 O         0.156778        -0.063406         0.664496
 C        -1.674428         0.381054         2.114595
 C        -2.180188         1.703542         2.673436
 C        -0.804660         2.671253         2.746961
 C         0.316845         1.761521         2.281803
 H        -3.456252         3.963206         2.195678
 H        -2.154009         1.953014        -0.200361
 H        -0.625027         2.762125        -0.083881
 H         0.388711         0.045588        -0.331112
 H        -2.507695        -0.171689         1.552560
 H        -1.275447        -0.325003         2.843916
 H        -3.003867         1.774051         3.379214
 H        -0.823960         3.303805         3.630264
 H         1.175750         2.297172         1.838947
 H         0.843659         0.997123         2.899145
