19
Iteration:  4070
 O        -2.887349         3.895322         1.493696
 C        -1.917298         2.782233         1.622501
 C        -1.451511         1.898757         0.450545
 C        -0.577391         0.879077         1.302088
 O         0.037511        -0.129653         0.508411
 C        -1.481195         0.406309         2.435493
 C        -1.898262         1.855796         2.866026
 C        -0.734081         2.738053         2.586940
 C         0.261443         1.912864         2.017257
 H        -2.332372         4.609557         1.804130
 H        -2.152668         1.344269        -0.188879
 H        -0.816830         2.617474        -0.160379
 H         0.997247        -0.253460         0.796334
 H        -2.457681        -0.089333         2.098814
 H        -1.089341        -0.186758         3.354472
 H        -2.614700         1.992170         3.679307
 H        -0.506877         3.631866         3.166402
 H         0.949266         2.483582         1.346096
 H         0.861657         1.318154         2.803273
