19
Iteration:  3515charge 0 multiplicity 1
 O        -2.813535         3.858951         1.501802
 C        -1.903496         2.810030         1.635825
 C        -1.481120         1.879528         0.443018
 C        -0.535175         0.932302         1.257204
 O         0.077956         0.015839         0.389298
 C        -1.538033         0.350137         2.366933
 C        -1.967618         1.814660         2.821005
 C        -0.749384         2.822311         2.741300
 C         0.374803         1.885509         2.210005
 H        -2.869754         4.115186         0.571173
 H        -2.316343         1.218132         0.251611
 H        -0.939898         2.322962        -0.421152
 H         0.076313        -0.805723         0.879373
 H        -2.409655        -0.105380         1.995313
 H        -1.027062        -0.174447         3.158720
 H        -2.808728         1.896649         3.457652
 H        -0.834335         3.513542         3.558032
 H         1.301621         2.247665         1.644216
 H         0.872488         1.251982         3.049716
