19
Iteration:  1469
 O        -2.733846         4.006660         1.737305
 C        -1.967080         2.776585         1.630763
 C        -1.474289         1.916818         0.299977
 C        -0.568525         0.949641         1.138866
 O         0.297887        -0.162312         0.691066
 C        -1.592383         0.480244         2.295168
 C        -2.123749         1.791329         2.719453
 C        -0.845124         2.674636         2.645709
 C         0.294263         1.854566         2.078475
 H        -2.023667         4.632250         1.874304
 H        -2.187031         1.331043        -0.418874
 H        -0.776963         2.567838        -0.312460
 H        -0.307427        -0.879712         0.612087
 H        -2.402615        -0.130606         1.856648
 H        -0.988488        -0.100455         2.965142
 H        -2.718734         1.786099         3.629969
 H        -0.514916         3.618587         3.139865
 H         0.964880         2.520595         1.466280
 H         0.925960         1.221754         2.749987
