19
Iteration:  3306charge 0 multiplicity 1
 O        -2.745683         3.865740         1.479377
 C        -1.841991         2.852020         1.635139
 C        -1.364300         1.889945         0.546362
 C        -0.573619         0.827604         1.371971
 O         0.086404         0.018531         0.444267
 C        -1.643738         0.421692         2.375473
 C        -2.096860         1.822255         2.734722
 C        -0.801802         2.718827         2.670919
 C         0.411832         1.848260         2.080695
 H        -3.607748         3.613256         1.900658
 H        -2.160432         1.320996         0.075986
 H        -0.682603         2.478421        -0.181539
 H         0.893507         0.529574         0.275309
 H        -2.447344         0.024354         1.695022
 H        -1.290171        -0.143379         3.342711
 H        -2.798979         2.029629         3.537533
 H        -0.910550         3.290294         3.579233
 H         1.077645         2.276307         1.363211
 H         1.076359         1.267550         2.755040
