19
Iteration:  4422charge 0 multiplicity 1
 O        -2.780778         3.807460         1.534617
 C        -1.929368         2.655478         1.617861
 C        -1.604491         1.782910         0.456164
 C        -0.636008         0.866202         1.282142
 O         0.068799        -0.020097         0.539720
 C        -1.527227         0.554737         2.437057
 C        -1.851271         1.937514         2.975182
 C        -0.669705         2.742413         2.451832
 C         0.348187         1.911457         1.954133
 H        -2.806793         4.281166         2.366200
 H        -2.543489         1.352152         0.071808
 H        -1.104035         2.364128        -0.317540
 H         0.793296        -0.491970         1.109168
 H        -2.381223         0.187293         1.895800
 H        -1.373208        -0.253508         3.230892
 H        -2.544691         2.257319         3.689044
 H        -0.442022         3.770321         2.761200
 H         0.925555         2.445431         1.245446
 H         0.979078         1.477488         2.769853
