19
Iteration:  2128charge 0 multiplicity 1
 O        -2.756623         3.861354         1.665837
 C        -1.882439         2.767269         1.611531
 C        -1.438123         1.981322         0.366661
 C        -0.609111         0.940259         1.157954
 O         0.239665        -0.073085         0.742662
 C        -1.613355         0.537653         2.242794
 C        -1.949187         1.786520         2.849562
 C        -0.765077         2.700296         2.608635
 C         0.228143         1.867050         2.027234
 H        -3.684821         3.487598         1.677919
 H        -2.357779         1.552911        -0.270168
 H        -0.681577         2.524628        -0.337797
 H        -0.147242        -0.983725         0.550948
 H        -2.496520         0.018323         1.763769
 H        -1.154086        -0.234690         2.864106
 H        -2.535633         2.099307         3.662837
 H        -0.535159         3.614403         3.142927
 H         0.965445         2.430851         1.467598
 H         0.932060         1.320829         2.689438
