19
Iteration:    81charge 0 multiplicity 1
 O        -2.622221         3.914866         1.669200
 C        -1.956910         2.687586         1.653958
 C        -1.499262         1.930054         0.380337
 C        -0.522629         1.006714         1.172296
 O         0.288970        -0.008852         0.525815
 C        -1.645032         0.462316         2.297817
 C        -2.027546         1.803839         2.932551
 C        -0.894670         2.612022         2.659296
 C         0.266621         1.913683         2.062059
 H        -3.336483         3.918111         1.045906
 H        -2.261958         1.373612        -0.196742
 H        -0.876148         2.542516        -0.341155
 H         0.057306        -0.865441         0.827762
 H        -2.447108         0.060314         1.704129
 H        -1.051295        -0.341655         2.844280
 H        -2.855628         1.974189         3.629837
 H        -0.651249         3.477279         3.314058
 H         0.937777         2.554743         1.499838
 H         0.855759         1.223826         2.769724
