19
Iteration:  3043
 O        -2.574997         3.982633         1.395473
 C        -2.090053         2.690897         1.693769
 C        -1.402350         2.021465         0.535252
 C        -0.577346         0.924258         1.247064
 O         0.104133        -0.061857         0.333377
 C        -1.508963         0.386646         2.367806
 C        -2.035477         1.750831         2.856611
 C        -0.846592         2.742526         2.725072
 C         0.278904         1.831245         2.214382
 H        -3.495209         3.998409         1.064581
 H        -2.022576         1.414044        -0.079015
 H        -0.901838         2.767610        -0.136520
 H         0.821101        -0.480063         0.976278
 H        -2.268821        -0.322839         1.983402
 H        -0.908181        -0.140604         3.095567
 H        -2.891249         1.886725         3.550722
 H        -0.744820         3.709051         3.187053
 H         1.103146         2.415502         2.002661
 H         0.701377         1.249757         3.113229
