19
Iteration:   460charge 0 multiplicity 1
 O        -2.743350         3.880724         1.679630
 C        -1.855532         2.774275         1.609759
 C        -1.204427         2.105393         0.345488
 C        -0.572701         1.017122         1.218502
 O         0.073358        -0.074663         0.697395
 C        -1.651523         0.451400         2.054166
 C        -2.094223         1.726097         2.651966
 C        -0.850957         2.605686         2.691193
 C         0.330746         1.811230         2.317582
 H        -3.673516         3.573859         1.788134
 H        -2.085015         1.729060        -0.132935
 H        -0.500332         2.636018        -0.248837
 H         0.832438         0.209484         0.249723
 H        -2.474269        -0.061463         1.574358
 H        -1.253852        -0.339820         2.736262
 H        -2.977862         1.910040         3.296516
 H        -0.819394         3.407029         3.463898
 H         1.163938         2.387897         1.780696
 H         0.966264         1.158436         2.913964
