19
Iteration:  4652charge 0 multiplicity 1
 O        -2.961404         3.735479         1.474702
 C        -1.931233         2.794018         1.662769
 C        -1.366443         1.927128         0.473573
 C        -0.526355         0.876609         1.352453
 O        -0.069796        -0.186935         0.465319
 C        -1.526240         0.465413         2.413150
 C        -1.874823         1.944098         2.909060
 C        -0.661421         2.838080         2.603010
 C         0.353677         1.935222         1.928710
 H        -2.813065         4.433749         2.104218
 H        -2.213142         1.329337         0.020651
 H        -0.872970         2.592780        -0.270752
 H         0.700053        -0.657001         0.817293
 H        -2.359424        -0.093407         2.063927
 H        -1.009955        -0.054133         3.254575
 H        -2.482092         2.058964         3.829081
 H        -0.381088         3.617784         3.300910
 H         0.844843         2.427585         1.109372
 H         1.140191         1.594429         2.718512
