19
Iteration:  2854charge 0 multiplicity 1
 O        -2.758926         3.875580         1.599493
 C        -1.882755         2.801119         1.599102
 C        -1.317871         1.896110         0.481528
 C        -0.515545         0.924154         1.334590
 O         0.015908        -0.151388         0.492626
 C        -1.619803         0.423111         2.249290
 C        -2.102523         1.793188         2.695697
 C        -0.747372         2.794727         2.750507
 C         0.375313         1.956472         2.099034
 H        -3.742706         3.679620         1.572596
 H        -2.056421         1.497128        -0.263233
 H        -0.606639         2.567113        -0.228998
 H         0.730742        -0.589505         0.959731
 H        -2.374044        -0.018631         1.598129
 H        -1.319588        -0.088865         3.089710
 H        -2.809963         2.110358         3.495230
 H        -0.507243         3.434907         3.572177
 H         0.924482         2.507456         1.409794
 H         1.049593         1.646533         2.912920
