19
Iteration:  1646charge 0 multiplicity 1
 O        -2.806149         3.927493         1.512884
 C        -1.849073         2.760181         1.676165
 C        -1.404303         1.902116         0.504640
 C        -0.507968         0.891876         1.263287
 O         0.176377        -0.050566         0.474246
 C        -1.597378         0.494879         2.272517
 C        -2.088852         1.800583         2.788062
 C        -0.767636         2.683073         2.684997
 C         0.294599         1.852823         2.173458
 H        -2.329262         4.751406         1.354360
 H        -2.257628         1.414582         0.036958
 H        -0.767467         2.370271        -0.322840
 H        -0.490233        -0.667514         0.302163
 H        -2.486657         0.034039         1.772055
 H        -1.262859        -0.209675         2.979937
 H        -2.783662         1.878187         3.610761
 H        -0.603842         3.518339         3.378628
 H         1.158612         2.244725         1.667144
 H         0.625053         1.410495         3.177727
