19
Iteration:  4462
 O        -2.827565         3.914740         1.460560
 C        -1.904210         2.767128         1.649412
 C        -1.624965         1.862628         0.525878
 C        -0.513166         0.950588         1.296511
 O        -0.027843        -0.193759         0.506395
 C        -1.370602         0.406881         2.446856
 C        -1.963826         1.887897         2.897058
 C        -0.808659         2.705332         2.706869
 C         0.352081         1.978724         1.888532
 H        -2.135928         4.590695         1.161183
 H        -2.528290         1.461187         0.030433
 H        -0.911305         2.199038        -0.313903
 H         0.615413        -0.712380         0.976290
 H        -1.950061        -0.468206         2.074436
 H        -0.643135         0.090491         3.176768
 H        -2.617882         2.106386         3.748168
 H        -0.481976         3.581194         3.228302
 H         0.821312         2.688356         1.076921
 H         1.175662         1.614263         2.546706
