19
Iteration:  3825
 O        -2.915746         3.857536         1.598808
 C        -1.878685         2.820472         1.702491
 C        -1.333600         1.904723         0.403834
 C        -0.536433         0.966934         1.281131
 O         0.030231        -0.201250         0.594922
 C        -1.626443         0.431486         2.228242
 C        -1.955396         1.851139         2.793677
 C        -0.708632         2.695321         2.731567
 C         0.359642         1.966175         2.038739
 H        -3.002979         4.152455         0.683261
 H        -2.108404         1.356479        -0.186116
 H        -0.910731         2.479719        -0.409790
 H         0.903692        -0.322111         0.816054
 H        -2.503245        -0.009556         1.744564
 H        -1.376771        -0.192533         3.030450
 H        -2.598715         2.031043         3.718181
 H        -0.456392         3.592149         3.305294
 H         0.978326         2.631797         1.442416
 H         1.064224         1.540125         2.719120
