19
Iteration:  1169charge 0 multiplicity 1
 O        -2.604898         3.907261         1.359625
 C        -1.853005         2.749947         1.691338
 C        -1.417893         1.908198         0.442884
 C        -0.623842         0.945639         1.241314
 O         0.097554         0.015048         0.420193
 C        -1.620109         0.383405         2.369201
 C        -2.030035         1.791209         2.945052
 C        -0.806491         2.671722         2.777617
 C         0.273299         1.874275         2.153983
 H        -3.466102         3.595933         1.614945
 H        -2.434101         1.388873         0.088809
 H        -0.795373         2.361193        -0.355747
 H         0.597936         0.630383        -0.182947
 H        -2.437321        -0.282154         2.164265
 H        -1.009619        -0.119617         3.167394
 H        -2.922505         1.917815         3.494059
 H        -0.601181         3.506136         3.431497
 H         1.112181         2.518560         1.794937
 H         0.691146         1.235860         2.952936
