19
Iteration:  3979charge 0 multiplicity 1
 O        -2.783512         3.804747         1.492345
 C        -1.904276         2.711725         1.604301
 C        -1.426363         1.846710         0.393253
 C        -0.548815         0.950559         1.270869
 O         0.066556        -0.007293         0.472002
 C        -1.610487         0.535887         2.358282
 C        -1.971968         1.867747         2.918032
 C        -0.739606         2.796462         2.653799
 C         0.430041         1.875627         2.149935
 H        -3.529540         3.562788         2.084557
 H        -2.182831         1.165911        -0.091956
 H        -0.944316         2.551708        -0.304993
 H        -0.087087        -0.982953         0.776656
 H        -2.508038        -0.014993         1.920735
 H        -1.146716        -0.133639         3.194617
 H        -2.706174         2.195508         3.598621
 H        -0.596515         3.784504         3.100363
 H         1.142254         2.189592         1.334711
 H         0.967803         1.314395         2.879890
