19
Iteration:   533charge 0 multiplicity 1
 O        -2.536463         3.824441         1.299965
 C        -1.872156         2.741787         1.706946
 C        -1.355986         2.037410         0.551803
 C        -0.561857         0.985370         1.240464
 O         0.113483         0.081254         0.361767
 C        -1.655969         0.425569         2.170143
 C        -2.140035         1.721946         2.802939
 C        -0.938069         2.608289         2.923972
 C         0.238096         1.787310         2.339830
 H        -2.686898         4.304449         2.104109
 H        -2.143171         1.482221        -0.130029
 H        -0.722116         2.739521        -0.133467
 H         0.756935         0.670783        -0.046780
 H        -2.362127        -0.379020         1.760155
 H        -1.056557        -0.175321         2.887797
 H        -3.072727         1.563105         3.382662
 H        -0.703834         3.340433         3.722666
 H         1.109376         2.446155         2.002098
 H         0.754384         1.223521         3.128504
