19
Iteration:  1970charge 0 multiplicity 1
 O        -2.780232         3.928567         1.508529
 C        -1.957576         2.723637         1.640397
 C        -1.386935         1.992418         0.482469
 C        -0.526067         0.877187         1.254793
 O         0.218729        -0.117577         0.522708
 C        -1.596510         0.440241         2.328362
 C        -2.003098         1.802834         2.861754
 C        -0.778708         2.754670         2.645401
 C         0.337765         1.938527         2.074473
 H        -3.667977         3.761492         1.888101
 H        -2.177204         1.568861        -0.242661
 H        -0.797450         2.651499        -0.151887
 H        -0.403169        -0.964258         0.421110
 H        -2.443039         0.061198         1.820406
 H        -1.380306        -0.307454         3.112671
 H        -2.705767         2.047914         3.627774
 H        -0.766024         3.358625         3.528764
 H         0.981357         2.513307         1.388837
 H         0.964990         1.384595         2.763054
