19
Iteration:  2450charge 0 multiplicity 1
 O        -2.673659         3.831692         1.458504
 C        -1.824033         2.745519         1.640307
 C        -1.464213         1.879876         0.455713
 C        -0.573693         0.950051         1.303863
 O         0.027460         0.007898         0.489074
 C        -1.511484         0.415561         2.366243
 C        -1.967903         1.784819         2.831904
 C        -0.802842         2.812246         2.646508
 C         0.332964         1.961368         2.133364
 H        -3.606684         3.617365         1.493259
 H        -2.324840         1.322511        -0.012215
 H        -0.900284         2.472017        -0.157809
 H        -0.498021        -0.826521         0.725747
 H        -2.229417        -0.214941         1.845883
 H        -1.102525        -0.249011         3.131878
 H        -2.774001         1.970713         3.599784
 H        -0.825749         3.569804         3.429614
 H         1.094409         2.446396         1.564141
 H         0.926208         1.276016         2.788369
