19
Iteration:   916charge 0 multiplicity 1
 O        -2.645855         3.896383         1.282882
 C        -1.880840         2.717647         1.640490
 C        -1.337649         1.992581         0.528585
 C        -0.577063         0.901956         1.299958
 O         0.029108         0.090492         0.484250
 C        -1.624906         0.427903         2.223498
 C        -2.042784         1.719987         2.823648
 C        -0.891720         2.559958         2.812911
 C         0.348104         1.848295         2.305658
 H        -2.610816         4.383809         2.168189
 H        -2.075888         1.514098        -0.114844
 H        -0.648833         2.497881        -0.089501
 H         0.403632         0.636284        -0.308077
 H        -2.428378        -0.250206         1.859171
 H        -1.100591        -0.131150         3.011511
 H        -2.750772         1.839035         3.586041
 H        -1.002581         3.472105         3.377572
 H         1.016623         2.436792         1.704080
 H         0.820622         1.189178         3.018222
