19
Iteration:  1639charge 0 multiplicity 1
 O        -2.788459         3.930097         1.555833
 C        -1.947704         2.765243         1.674438
 C        -1.413355         1.903945         0.455404
 C        -0.507154         0.927183         1.236127
 O         0.228061        -0.101631         0.514312
 C        -1.633799         0.495573         2.225225
 C        -2.047765         1.815471         2.796604
 C        -0.796159         2.740785         2.679245
 C         0.311593         1.817950         2.166479
 H        -2.151016         4.668612         1.620060
 H        -2.208925         1.271856         0.049140
 H        -0.957614         2.523485        -0.327574
 H        -0.455879        -0.829128         0.415110
 H        -2.423523        -0.030823         1.705358
 H        -1.291898        -0.199998         3.014889
 H        -2.781082         2.010860         3.595049
 H        -0.576428         3.610517         3.356954
 H         1.212418         2.297055         1.769341
 H         0.690037         1.230981         2.985212
