19
Iteration:  3741charge 0 multiplicity 1
 O        -2.688930         3.802626         1.391075
 C        -1.849516         2.804000         1.715252
 C        -1.557636         1.837947         0.488955
 C        -0.599025         0.972529         1.253963
 O         0.014006        -0.139696         0.539603
 C        -1.510182         0.413431         2.294873
 C        -2.042291         1.794379         2.804323
 C        -0.790636         2.713157         2.760059
 C         0.372225         2.068551         2.067105
 H        -2.364931         4.576145         1.913805
 H        -2.487926         1.323916         0.204623
 H        -1.103050         2.445565        -0.326397
 H         1.027264         0.036692         0.677434
 H        -2.283211        -0.241408         1.811408
 H        -0.927462        -0.137999         3.121683
 H        -2.926946         2.038943         3.482516
 H        -0.667863         3.379626         3.632701
 H         0.867744         2.719200         1.385834
 H         1.057816         1.397776         2.694333
