19
Iteration:   762
 O        -2.686181         3.954545         1.410677
 C        -1.844015         2.817192         1.668996
 C        -1.271769         2.002335         0.484953
 C        -0.488804         0.900615         1.330758
 O         0.108365        -0.026338         0.406448
 C        -1.654983         0.393741         2.146202
 C        -2.133147         1.744283         2.770533
 C        -0.895580         2.602412         2.871312
 C         0.302249         1.811122         2.348455
 H        -3.585894         3.660653         1.462823
 H        -2.078563         1.748916        -0.213379
 H        -0.595978         2.665341        -0.009854
 H         0.358347         0.586967        -0.262630
 H        -2.447731        -0.127995         1.507545
 H        -1.356344        -0.269830         2.967010
 H        -2.789998         1.840813         3.658613
 H        -0.735519         3.407837         3.602954
 H         1.040415         2.411984         1.735532
 H         0.948382         1.362607         3.131501
