19
Iteration:  4208charge 0 multiplicity 1
 O        -2.900398         3.810926         1.470659
 C        -1.951500         2.720222         1.721278
 C        -1.524306         1.829238         0.513230
 C        -0.567522         0.860356         1.292981
 O         0.161924        -0.113825         0.597581
 C        -1.669773         0.492965         2.385314
 C        -1.888781         1.940659         2.977251
 C        -0.603857         2.785566         2.506469
 C         0.408506         1.924300         1.909577
 H        -2.618213         4.636657         1.955776
 H        -2.372818         1.371702        -0.044800
 H        -0.955428         2.274632        -0.298107
 H        -0.260295        -0.100483        -0.288196
 H        -2.578562         0.009936         1.968476
 H        -1.420326        -0.157171         3.178256
 H        -2.415956         2.090099         3.933394
 H        -0.417375         3.717960         3.037669
 H         1.159286         2.331157         1.167525
 H         0.937043         1.425570         2.738955
