19
Iteration:  1862
 O        -2.695346         3.866047         1.591837
 C        -1.837989         2.759538         1.653039
 C        -1.462845         2.001426         0.371715
 C        -0.552300         0.978732         1.233610
 O         0.158180        -0.208018         0.722911
 C        -1.587575         0.499974         2.227769
 C        -2.022012         1.811332         2.856550
 C        -0.828853         2.707236         2.704168
 C         0.324823         1.964059         2.010283
 H        -3.622770         3.523486         1.719607
 H        -2.201102         1.332973        -0.181604
 H        -0.914914         2.579916        -0.378311
 H        -0.043273        -0.415593        -0.263810
 H        -2.385330         0.142126         1.578763
 H        -1.130585        -0.316446         2.837645
 H        -2.979355         1.982447         3.363463
 H        -0.658936         3.473090         3.466871
 H         1.106224         2.495639         1.429453
 H         0.711936         1.408909         2.830652
