19
Iteration:  1512charge 0 multiplicity 1
 O        -2.820767         3.785123         1.490757
 C        -1.877063         2.789373         1.697097
 C        -1.369172         1.971409         0.496820
 C        -0.558353         0.876160         1.265766
 O         0.175116        -0.073246         0.490874
 C        -1.690295         0.503266         2.285419
 C        -2.097075         1.874115         2.860912
 C        -0.724790         2.685443         2.768846
 C         0.401093         1.839011         2.097745
 H        -2.449983         4.570241         1.066029
 H        -2.232200         1.674021        -0.206749
 H        -0.765051         2.515453        -0.265914
 H        -0.391466        -0.541755        -0.055311
 H        -2.484237        -0.051383         1.744960
 H        -1.306170         0.013197         3.201136
 H        -2.915750         1.965316         3.600145
 H        -0.556878         3.552084         3.438949
 H         1.008006         2.500829         1.368934
 H         1.088775         1.340647         2.847463
