19
Iteration:  2634charge 0 multiplicity 1
 O        -2.581289         3.915681         1.645039
 C        -1.937683         2.733427         1.604186
 C        -1.484565         1.950747         0.383467
 C        -0.547768         0.894841         1.268744
 O         0.152061        -0.034288         0.539914
 C        -1.568005         0.446057         2.381603
 C        -2.096712         1.751960         2.780014
 C        -0.825204         2.710787         2.675869
 C         0.290312         1.941068         2.047304
 H        -3.284249         3.894110         0.948064
 H        -2.194332         1.382088        -0.210525
 H        -0.791270         2.579776        -0.256835
 H         0.024253        -0.938890         0.987880
 H        -2.328336        -0.280994         2.001482
 H        -1.204742        -0.092155         3.214299
 H        -2.909676         1.989420         3.412030
 H        -0.588232         3.658111         3.156160
 H         0.916532         2.588546         1.521398
 H         0.946063         1.377299         2.687484
