19
Iteration:  1963charge 0 multiplicity 1
 O        -2.755426         3.894777         1.469657
 C        -1.941483         2.770729         1.675533
 C        -1.376369         1.925742         0.517269
 C        -0.499930         0.852057         1.271259
 O         0.150698        -0.044356         0.471201
 C        -1.624522         0.436095         2.326821
 C        -2.016596         1.808934         2.846751
 C        -0.824824         2.754997         2.672965
 C         0.372186         1.926263         2.075842
 H        -3.673926         3.808867         1.682093
 H        -2.195914         1.353030        -0.037548
 H        -0.617394         2.634429         0.034356
 H        -0.220740        -0.984948         0.476847
 H        -2.617448         0.001328         1.895674
 H        -1.243341        -0.343572         3.024802
 H        -2.760263         2.038304         3.612169
 H        -0.553566         3.346556         3.555247
 H         0.972180         2.548475         1.359217
 H         1.206810         1.699177         2.810746
