19
Iteration:  4465
 O        -2.813603         3.896677         1.457165
 C        -1.923686         2.759567         1.636674
 C        -1.611759         1.860023         0.519694
 C        -0.517440         0.980995         1.301227
 O        -0.057402        -0.186240         0.501478
 C        -1.372698         0.404666         2.435665
 C        -1.971828         1.883621         2.916220
 C        -0.810246         2.721640         2.730050
 C         0.389292         1.974320         1.894467
 H        -2.240692         4.555664         1.011017
 H        -2.471352         1.357737         0.022204
 H        -0.946745         2.260166        -0.274167
 H         0.592645        -0.750598         0.905254
 H        -1.892012        -0.450452         2.087063
 H        -0.607184         0.023871         3.176582
 H        -2.599311         2.132399         3.716664
 H        -0.457251         3.645442         3.178082
 H         0.820694         2.679082         1.174438
 H         1.214096         1.559395         2.567448
