19
Iteration:   582
 O        -2.766758         3.889882         1.651682
 C        -1.910409         2.741993         1.695710
 C        -1.244387         2.148623         0.366006
 C        -0.529388         1.030349         1.142331
 O         0.185057        -0.117415         0.692916
 C        -1.685805         0.397629         2.082327
 C        -2.149287         1.711662         2.677933
 C        -0.868040         2.643220         2.758107
 C         0.241155         1.769747         2.238760
 H        -2.216658         4.702301         1.848538
 H        -1.945000         1.799402        -0.324129
 H        -0.528495         2.743876        -0.150883
 H         0.859388         0.131087         0.014066
 H        -2.329009        -0.094233         1.369636
 H        -1.226406        -0.459433         2.632515
 H        -2.812196         1.819748         3.545374
 H        -0.841856         3.538865         3.389264
 H         0.997649         2.439992         1.801484
 H         0.769254         1.093907         2.946531
