19
Iteration:    55
 O        -2.827723         3.836064         1.479996
 C        -1.856896         2.822826         1.729557
 C        -1.375867         2.008018         0.524758
 C        -0.591178         0.926779         1.311216
 O         0.108820        -0.024493         0.498093
 C        -1.604733         0.356451         2.257961
 C        -2.003067         1.795203         2.753728
 C        -0.728424         2.726204         2.747541
 C         0.376341         1.927523         2.130930
 H        -3.624135         3.321376         1.448359
 H        -2.187662         1.714723        -0.131614
 H        -0.544038         2.425783        -0.005788
 H        -0.449137        -0.371316        -0.183534
 H        -2.382007        -0.276466         1.782116
 H        -1.045811        -0.330909         2.891158
 H        -2.709588         1.855402         3.570747
 H        -0.556200         3.534199         3.423176
 H         1.058680         2.357480         1.391996
 H         1.026783         1.437194         2.810807
