19
Iteration:  4959charge 0 multiplicity 1
 O        -2.853808         3.784906         1.559342
 C        -1.850133         2.777170         1.630646
 C        -1.407286         1.854006         0.448965
 C        -0.625269         0.899044         1.306117
 O        -0.050983        -0.004981         0.430887
 C        -1.548916         0.462496         2.461054
 C        -1.895409         1.926865         2.828546
 C        -0.721548         2.844991         2.644428
 C         0.393823         1.854153         2.080652
 H        -3.255305         3.629043         0.708939
 H        -2.193944         1.294739        -0.142410
 H        -0.566134         2.140329        -0.248987
 H         0.555531        -0.593169         0.893878
 H        -2.385752        -0.054590         2.046001
 H        -1.046514        -0.247675         3.231027
 H        -2.648028         2.114824         3.587291
 H        -0.452756         3.728092         3.175921
 H         1.058143         2.262379         1.352569
 H         0.934123         1.231849         2.859253
