19
Iteration:   686charge 0 multiplicity 1
 O        -2.687353         3.942964         1.475726
 C        -1.922678         2.822537         1.640139
 C        -1.333981         2.091642         0.516622
 C        -0.517113         0.943084         1.356189
 O         0.131772        -0.020934         0.519118
 C        -1.674658         0.302256         2.098351
 C        -2.170346         1.693877         2.652211
 C        -0.829442         2.563528         2.805716
 C         0.313454         1.838724         2.292405
 H        -2.569210         4.769275         2.004042
 H        -2.077348         1.491602        -0.151170
 H        -0.635997         2.567078        -0.213595
 H         0.872698         0.595465         0.106944
 H        -2.437909        -0.166528         1.386798
 H        -1.281792        -0.268254         2.926212
 H        -2.860072         1.663570         3.482781
 H        -0.830955         3.275095         3.636786
 H         1.081994         2.456818         1.670222
 H         0.914854         1.192470         3.003222
