19
Iteration:  2335charge 0 multiplicity 1
 O        -2.609126         3.930066         1.454226
 C        -1.977576         2.693254         1.669427
 C        -1.472365         1.878545         0.492055
 C        -0.615589         0.896793         1.306741
 O         0.114453         0.040317         0.455588
 C        -1.530092         0.348083         2.453943
 C        -1.998817         1.799997         2.906654
 C        -0.822519         2.727439         2.606882
 C         0.298809         2.003166         1.984923
 H        -3.459301         3.738212         1.078669
 H        -2.247872         1.439781        -0.037065
 H        -0.834237         2.580517        -0.065493
 H         0.224221        -0.802400         0.959457
 H        -2.445547        -0.306473         2.139228
 H        -0.964129        -0.204494         3.271408
 H        -2.686169         1.943570         3.775117
 H        -0.678270         3.533004         3.315281
 H         1.158753         2.398141         1.307350
 H         0.944040         1.397368         2.755067
