19
Iteration:  3161
 O        -2.649203         3.862656         1.392455
 C        -1.835659         2.760787         1.648797
 C        -1.369708         1.937270         0.491359
 C        -0.609108         0.921421         1.261897
 O         0.161281        -0.002692         0.419915
 C        -1.622763         0.438854         2.362190
 C        -2.100878         1.804985         2.831311
 C        -0.857026         2.680120         2.849061
 C         0.372544         1.938267         2.150513
 H        -3.478265         3.525364         1.743121
 H        -2.246887         1.554971        -0.002694
 H        -0.702130         2.432352        -0.298960
 H        -0.416069        -0.716746         0.120212
 H        -2.454828        -0.182783         1.948023
 H        -1.244414        -0.155357         3.256000
 H        -3.079089         1.734518         3.359076
 H        -0.759452         3.466727         3.611634
 H         0.937775         2.658698         1.574902
 H         1.209091         1.550333         2.655091
