19
Iteration:  3447
 O        -2.758315         3.819544         1.443506
 C        -1.842212         2.814303         1.686752
 C        -1.398320         1.993906         0.458643
 C        -0.527064         0.892774         1.272103
 O         0.063234        -0.141146         0.497774
 C        -1.567359         0.419450         2.327897
 C        -2.052263         1.727163         2.822734
 C        -0.857135         2.777135         2.758764
 C         0.336550         1.959120         2.028552
 H        -2.943781         4.379727         2.236538
 H        -2.286813         1.526779         0.092890
 H        -0.826659         2.651067        -0.263660
 H         0.846235        -0.434966         0.924612
 H        -2.243857        -0.007408         1.669175
 H        -1.213125        -0.247717         3.101800
 H        -2.934932         1.968020         3.454362
 H        -0.731794         3.554954         3.541369
 H         0.952488         2.607449         1.244866
 H         1.068341         1.535064         2.774292
