19
Iteration:   554charge 0 multiplicity 1
 O        -2.710233         3.938298         1.465510
 C        -1.881215         2.792948         1.682017
 C        -1.260940         2.054691         0.501251
 C        -0.518969         0.928632         1.294204
 O         0.156195        -0.015385         0.399603
 C        -1.675246         0.335080         2.243114
 C        -2.209084         1.688776         2.671388
 C        -0.890323         2.621227         2.829101
 C         0.308726         1.817070         2.301531
 H        -2.504674         4.589386         2.193715
 H        -2.134591         1.634338        -0.146361
 H        -0.466811         2.514016        -0.197711
 H         0.831387         0.456864        -0.207668
 H        -2.326503        -0.149338         1.432832
 H        -1.415108        -0.492310         2.901456
 H        -2.972144         1.970700         3.435145
 H        -0.939320         3.372700         3.643325
 H         1.020108         2.586288         1.929125
 H         0.967496         1.285197         3.009484
