19
Iteration:  2114charge 0 multiplicity 1
 O        -2.708510         3.884197         1.643667
 C        -1.963738         2.697452         1.657071
 C        -1.404526         1.939381         0.379717
 C        -0.617396         0.899402         1.283516
 O         0.255600        -0.022863         0.660908
 C        -1.663636         0.358088         2.293010
 C        -1.977460         1.866812         2.833164
 C        -0.780271         2.813660         2.581185
 C         0.368236         1.878598         1.990220
 H        -3.633575         3.692546         1.616067
 H        -2.184123         1.542884        -0.244872
 H        -0.817150         2.706296        -0.185135
 H        -0.358548        -0.672032         0.255701
 H        -2.596714         0.092862         1.760943
 H        -1.377780        -0.391044         3.047918
 H        -2.805808         1.837381         3.558928
 H        -0.627061         3.698904         3.183257
 H         1.022001         2.364649         1.201520
 H         0.781666         1.311247         2.837610
