19
Iteration:  1746charge 0 multiplicity 1
 O        -2.725221         3.851584         1.653538
 C        -1.907500         2.718266         1.590661
 C        -1.370740         1.987030         0.354086
 C        -0.605565         0.906978         1.176189
 O         0.183201        -0.164306         0.643199
 C        -1.637215         0.493431         2.341048
 C        -2.115241         1.816460         2.740757
 C        -0.817334         2.698129         2.716147
 C         0.270185         1.885067         2.077733
 H        -2.154302         4.639336         1.833971
 H        -2.067350         1.421312        -0.238822
 H        -0.844297         2.765113        -0.293420
 H         0.980298         0.245771         0.150416
 H        -2.537344        -0.052810         1.964836
 H        -1.124552        -0.030080         3.095921
 H        -3.001873         2.001243         3.358753
 H        -0.459497         3.544879         3.299754
 H         0.866241         2.503986         1.415730
 H         0.883346         1.288537         2.822578
