19
Iteration:  2597charge 0 multiplicity 1
 O        -2.722726         3.947358         1.476489
 C        -1.899085         2.764388         1.664526
 C        -1.510668         1.963048         0.463925
 C        -0.532124         0.922933         1.266281
 O         0.213286        -0.078591         0.511024
 C        -1.664879         0.401870         2.347361
 C        -1.970297         1.794942         2.823919
 C        -0.755646         2.759810         2.663125
 C         0.336540         1.867747         2.128999
 H        -3.701246         3.740900         1.596956
 H        -2.450447         1.606288        -0.058046
 H        -0.896369         2.581492        -0.369902
 H        -0.028837        -0.986346         0.632753
 H        -2.346577         0.066654         1.608476
 H        -1.412102        -0.336174         3.151029
 H        -2.758766         1.831623         3.615856
 H        -0.510547         3.599210         3.330838
 H         1.146952         2.468098         1.599301
 H         0.750165         1.239621         2.903019
