19
Iteration:  1155
 O        -2.656395         3.850721         1.359282
 C        -1.900351         2.772451         1.678891
 C        -1.406328         1.955127         0.572383
 C        -0.583372         0.898168         1.337465
 O         0.003615         0.033406         0.391410
 C        -1.564775         0.390472         2.391772
 C        -2.030605         1.770533         2.780980
 C        -0.783911         2.773302         2.742363
 C         0.349009         1.788475         2.204400
 H        -3.652214         3.731410         1.422197
 H        -2.168654         1.544003        -0.154606
 H        -0.780614         2.659779        -0.055473
 H         0.818703         0.500298         0.021811
 H        -2.385957        -0.083238         1.770863
 H        -1.193546        -0.296079         3.144379
 H        -2.719279         1.958973         3.640500
 H        -0.694226         3.598639         3.434607
 H         0.934003         2.242724         1.386707
 H         1.005722         1.214983         2.986409
