19
Iteration:   707
 O        -2.710501         3.951076         1.609258
 C        -1.898644         2.739587         1.664611
 C        -1.232991         2.047499         0.423597
 C        -0.492432         0.963712         1.192592
 O         0.242310        -0.106884         0.658852
 C        -1.738335         0.396487         2.093478
 C        -2.156848         1.706352         2.692393
 C        -0.921226         2.686946         2.746076
 C         0.277356         1.813972         2.194180
 H        -2.743137         4.262014         2.553062
 H        -2.087859         1.779915        -0.253860
 H        -0.634328         2.765111        -0.110520
 H         0.698492         0.118149        -0.130587
 H        -2.659084         0.184053         1.437964
 H        -1.484124        -0.366367         2.813456
 H        -3.028259         1.873629         3.309455
 H        -0.754746         3.331964         3.604869
 H         0.942443         2.533725         1.625655
 H         0.877580         1.151354         2.891818
