19
Iteration:  3834
 O        -2.859106         3.846613         1.581254
 C        -1.887561         2.777598         1.654099
 C        -1.310441         2.022781         0.415500
 C        -0.569817         0.943759         1.287519
 O         0.025363        -0.222602         0.594498
 C        -1.656504         0.428681         2.296899
 C        -1.946969         1.738319         2.875109
 C        -0.751164         2.800646         2.663634
 C         0.360999         1.964395         1.999392
 H        -2.928302         4.123130         0.652479
 H        -2.206539         1.578425        -0.101497
 H        -0.595977         2.631622        -0.220301
 H         0.874102        -0.254484         0.927194
 H        -2.451157         0.026618         1.639819
 H        -1.157702        -0.366807         2.972879
 H        -2.615226         1.784686         3.765363
 H        -0.563727         3.555467         3.415613
 H         0.813809         2.610295         1.201845
 H         0.974002         1.607126         2.746791
