19
Iteration:  3183
 O        -2.674961         3.982735         1.343185
 C        -1.964722         2.729615         1.709904
 C        -1.414639         1.977132         0.539606
 C        -0.555705         0.951304         1.300859
 O         0.174103         0.020117         0.555526
 C        -1.598290         0.354433         2.299492
 C        -1.966444         1.737405         2.873350
 C        -0.825280         2.698469         2.677731
 C         0.268998         1.826229         2.108832
 H        -3.616298         3.675526         1.263448
 H        -2.078570         1.423205        -0.103228
 H        -0.841879         2.775018        -0.063527
 H        -0.420570        -0.188485        -0.215247
 H        -2.400707        -0.244825         1.831260
 H        -1.091795        -0.362885         3.021959
 H        -2.533432         1.844609         3.830336
 H        -0.559421         3.442776         3.446804
 H         1.108685         2.340301         1.704899
 H         0.804021         1.362751         2.896249
