19
Iteration:  3974
 O        -2.814868         3.813768         1.503575
 C        -1.873688         2.694564         1.607234
 C        -1.416323         1.853113         0.369851
 C        -0.506052         0.936077         1.273177
 O         0.037718        -0.034323         0.489957
 C        -1.623425         0.522614         2.361143
 C        -1.948384         1.861881         2.832969
 C        -0.717624         2.809619         2.712499
 C         0.417320         1.891882         2.137653
 H        -3.453235         3.658608         2.205845
 H        -2.225555         1.250422        -0.035986
 H        -0.949607         2.375381        -0.489068
 H        -0.222035        -0.859646         0.892630
 H        -2.448809         0.068065         1.844775
 H        -1.080951        -0.024115         3.121319
 H        -2.740846         2.024301         3.630784
 H        -0.587048         3.785242         3.186721
 H         0.912969         2.427250         1.287834
 H         0.928503         1.391517         3.027872
