19
Iteration:   537charge 0 multiplicity 1
 O        -2.557242         3.824966         1.331569
 C        -1.831211         2.743610         1.719034
 C        -1.339434         2.022475         0.534299
 C        -0.516576         0.972326         1.236778
 O         0.113867         0.060685         0.349457
 C        -1.667402         0.382568         2.145730
 C        -2.178883         1.748570         2.789395
 C        -0.950132         2.609523         2.925843
 C         0.242083         1.822275         2.356881
 H        -2.702622         4.433972         2.113416
 H        -2.051368         1.527974        -0.076387
 H        -0.860920         2.757040        -0.052138
 H         0.790378         0.687617        -0.069177
 H        -2.394947        -0.323962         1.823129
 H        -1.132179        -0.062675         3.018155
 H        -3.041200         1.616882         3.402544
 H        -0.672208         3.392636         3.618376
 H         1.030165         2.367745         1.794744
 H         0.702607         1.212263         3.134100
