19
Iteration:   344charge 0 multiplicity 1
 O        -2.655122         3.916579         1.597687
 C        -1.895246         2.758218         1.638041
 C        -1.308083         2.119600         0.447717
 C        -0.584478         0.988657         1.286766
 O         0.171291        -0.085023         0.662232
 C        -1.699115         0.383677         2.118504
 C        -2.144967         1.713346         2.656950
 C        -0.847263         2.642400         2.734618
 C         0.336434         1.842470         2.192655
 H        -3.539491         3.633512         1.964391
 H        -2.033940         1.898272        -0.344335
 H        -0.429614         2.692288        -0.027982
 H         0.483342         0.402928        -0.112980
 H        -2.243700        -0.185041         1.385757
 H        -1.442407        -0.284798         2.955706
 H        -2.957735         1.687068         3.419146
 H        -0.692309         3.429303         3.509247
 H         1.041104         2.331373         1.569369
 H         0.946876         1.111351         2.738855
