19
Iteration:  1124
 O        -2.812709         3.882497         1.541886
 C        -1.891396         2.830744         1.655559
 C        -1.280122         2.005999         0.363687
 C        -0.545621         0.982102         1.196441
 O        -0.011168        -0.202665         0.511704
 C        -1.584855         0.459217         2.295475
 C        -1.965825         1.763189         2.834046
 C        -0.800004         2.757302         2.805073
 C         0.360835         1.867529         2.179787
 H        -3.576755         3.470868         1.151207
 H        -2.138375         1.590195        -0.315088
 H        -0.658957         2.723517        -0.220770
 H         0.938025        -0.212553         0.601403
 H        -2.479488         0.147570         1.743819
 H        -1.218182        -0.387172         2.872247
 H        -2.860633         1.915588         3.451142
 H        -0.676677         3.595351         3.473133
 H         1.086810         2.418278         1.583474
 H         0.921833         1.268686         2.955317
