19
Iteration:  4873charge 0 multiplicity 1
 O        -2.627014         3.827841         1.415930
 C        -1.951871         2.626038         1.664885
 C        -1.517919         1.803505         0.504491
 C        -0.562083         0.887320         1.280325
 O        -0.049261        -0.052191         0.406993
 C        -1.439826         0.497696         2.478110
 C        -2.002804         1.784336         2.916652
 C        -0.866200         2.782308         2.722973
 C         0.354073         2.066442         1.960130
 H        -2.116675         4.527103         1.852719
 H        -2.301596         1.120403         0.098190
 H        -1.024147         2.313246        -0.364730
 H         0.439494        -0.727547         0.826458
 H        -2.224807        -0.252816         2.405356
 H        -0.770744         0.125376         3.287764
 H        -2.896873         2.049212         3.558473
 H        -0.739450         3.760703         3.210378
 H         0.667809         2.711144         1.193324
 H         1.293891         1.985467         2.536000
