19
Iteration:   102
 O        -2.541270         4.063072         1.689299
 C        -1.982406         2.738916         1.658043
 C        -1.550744         1.894302         0.452383
 C        -0.573191         0.895903         1.248834
 O         0.210502         0.044958         0.544068
 C        -1.569410         0.285031         2.228030
 C        -2.038971         1.652268         2.699792
 C        -0.898630         2.794567         2.614715
 C         0.281606         1.907201         2.113897
 H        -3.376631         4.061694         1.154673
 H        -2.422037         1.325552         0.128277
 H        -1.136077         2.547805        -0.358902
 H         0.824199        -0.465726         1.179860
 H        -2.201082        -0.437298         1.752783
 H        -1.139635        -0.155221         3.189434
 H        -2.717249         1.619930         3.559699
 H        -0.769658         3.623913         3.364972
 H         0.975459         2.241233         1.375635
 H         0.917692         1.304456         2.841906
