19
Iteration:  3547
 O        -2.776467         3.738568         1.418347
 C        -1.964242         2.698427         1.685840
 C        -1.311470         1.993504         0.524446
 C        -0.576483         0.925456         1.249867
 O         0.043739        -0.052175         0.423004
 C        -1.632949         0.422749         2.375578
 C        -2.007118         1.808745         2.899401
 C        -0.784984         2.781168         2.702307
 C         0.354262         1.957625         2.040482
 H        -2.465242         4.560742         1.835286
 H        -1.956229         1.682200        -0.274310
 H        -0.660753         2.672171        -0.110144
 H         0.512806        -0.657907         1.122741
 H        -2.485005        -0.157762         2.190401
 H        -1.047324        -0.143401         3.113398
 H        -2.693996         2.037138         3.672975
 H        -0.703715         3.528753         3.477527
 H         0.902586         2.401430         1.107327
 H         1.061467         1.437148         2.767822
