19
Iteration:  1148charge 0 multiplicity 1
 O        -2.701818         3.871964         1.378785
 C        -1.978306         2.787516         1.712614
 C        -1.350153         1.979452         0.587547
 C        -0.523313         0.911722         1.347737
 O        -0.035006         0.010567         0.411382
 C        -1.569497         0.365472         2.305814
 C        -2.022081         1.827836         2.786422
 C        -0.780813         2.739625         2.667574
 C         0.387460         1.756404         2.212329
 H        -3.612692         3.468512         1.407431
 H        -2.139633         1.542938        -0.149679
 H        -0.641510         2.625269         0.068846
 H         0.818226         0.264824         0.157603
 H        -2.290292        -0.173877         1.732380
 H        -1.385231        -0.201066         3.252449
 H        -2.502131         2.015123         3.701168
 H        -0.737661         3.533442         3.401042
 H         0.943004         2.393966         1.491327
 H         1.049397         1.395356         2.959412
