19
Iteration:  1625
 O        -2.716248         3.918582         1.650482
 C        -1.960841         2.727916         1.556980
 C        -1.526450         2.019126         0.320482
 C        -0.588436         0.965188         1.206351
 O         0.266076        -0.109781         0.686466
 C        -1.647273         0.386321         2.233667
 C        -2.014235         1.856229         2.814922
 C        -0.826402         2.724660         2.629217
 C         0.379892         1.811834         2.154586
 H        -2.229072         4.711738         1.966565
 H        -2.258456         1.570998        -0.326547
 H        -0.880390         2.694386        -0.382341
 H        -0.214161        -0.992176         0.606064
 H        -2.528471        -0.056604         1.746961
 H        -1.192122        -0.313992         2.841825
 H        -2.759218         1.924052         3.593490
 H        -0.813662         3.579642         3.360042
 H         1.014133         2.349595         1.504859
 H         0.948136         1.098563         2.818754
