19
Iteration:  1152charge 0 multiplicity 1
 O        -2.671483         3.851621         1.367350
 C        -1.951150         2.792820         1.697978
 C        -1.388495         1.958560         0.575689
 C        -0.556510         0.902283         1.341571
 O        -0.019109         0.026813         0.401112
 C        -1.556952         0.377181         2.356829
 C        -2.022307         1.796189         2.767645
 C        -0.782726         2.763589         2.707676
 C         0.370990         1.760830         2.216201
 H        -3.595697         3.609994         1.418245
 H        -2.077798         1.606186        -0.089411
 H        -0.738234         2.653941         0.025295
 H         0.864566         0.418313         0.061023
 H        -2.342186        -0.118416         1.714296
 H        -1.305994        -0.266638         3.223141
 H        -2.619000         2.011444         3.695268
 H        -0.730134         3.608399         3.430588
 H         0.878133         2.304781         1.396097
 H         1.035086         1.298991         2.973026
