19
Iteration:  4940
 O        -2.858943         3.633119         1.676129
 C        -1.766760         2.815022         1.546291
 C        -1.424811         1.847158         0.398795
 C        -0.564198         0.850986         1.316326
 O         0.056185        -0.012355         0.425004
 C        -1.694060         0.531910         2.451033
 C        -1.867282         1.958103         2.901890
 C        -0.697528         2.844692         2.507260
 C         0.309748         1.865770         2.107377
 H        -2.872646         4.277983         0.952607
 H        -2.345944         1.395281         0.032109
 H        -1.025016         2.422531        -0.460431
 H         0.509204        -0.768139         0.922946
 H        -2.653860         0.035092         2.110014
 H        -1.275328        -0.149603         3.187728
 H        -2.736170         2.256617         3.407319
 H        -0.515966         3.694584         3.119288
 H         1.079190         2.204279         1.465535
 H         0.813915         1.532581         3.008774
