19
Iteration:  2420charge 0 multiplicity 1
 O        -2.869721         3.866473         1.411850
 C        -1.880518         2.830312         1.696238
 C        -1.413990         1.903609         0.406949
 C        -0.558060         0.899924         1.292835
 O         0.136205        -0.116665         0.516444
 C        -1.587361         0.495284         2.391856
 C        -1.998532         1.873889         2.899027
 C        -0.703348         2.737992         2.670693
 C         0.375921         1.855360         2.128012
 H        -3.658128         3.298783         1.720614
 H        -2.209321         1.699794        -0.425770
 H        -0.708704         2.689495        -0.174248
 H        -0.259520        -0.274839        -0.401003
 H        -2.303514        -0.202308         1.986040
 H        -1.179982        -0.060342         3.258117
 H        -2.434364         2.020493         3.922821
 H        -0.636579         3.529024         3.408052
 H         1.056987         2.353266         1.430572
 H         0.938241         1.196907         2.706115
