19
Iteration:  1388
 O        -2.866000         3.822830         1.497680
 C        -1.850149         2.864534         1.641384
 C        -1.276177         2.037407         0.506290
 C        -0.579778         0.899827         1.312854
 O         0.050671        -0.079859         0.452384
 C        -1.614567         0.376724         2.342662
 C        -2.001160         1.833564         2.774821
 C        -0.761896         2.719120         2.771992
 C         0.336529         1.819258         2.178912
 H        -2.734604         4.061281         0.572129
 H        -2.030462         1.696667        -0.270937
 H        -0.544667         2.499714        -0.148912
 H        -0.269852        -0.003750        -0.398560
 H        -2.353468        -0.282151         1.890991
 H        -1.043333        -0.159842         3.169872
 H        -2.741824         2.161765         3.553799
 H        -0.591515         3.420581         3.571204
 H         1.202107         2.379210         1.663558
 H         0.788688         1.132699         2.966595
