19
Iteration:   465charge 0 multiplicity 1
 O        -2.739365         3.886032         1.673037
 C        -1.825759         2.729340         1.561601
 C        -1.206844         2.123845         0.346438
 C        -0.566404         1.037322         1.210314
 O         0.089998        -0.086146         0.689029
 C        -1.713659         0.458285         2.065961
 C        -2.099136         1.725506         2.680948
 C        -0.833142         2.590372         2.742204
 C         0.323382         1.819238         2.320790
 H        -3.595498         3.555094         2.029850
 H        -2.043630         1.631142        -0.224533
 H        -0.488190         2.467227        -0.472770
 H         0.829784         0.366386         0.135956
 H        -2.525659        -0.107055         1.556001
 H        -1.165558        -0.200677         2.759635
 H        -3.004351         1.899514         3.229073
 H        -0.748468         3.424560         3.399966
 H         0.902482         2.611795         1.842549
 H         0.963521         1.147499         2.931637
