19
Iteration:   591charge 0 multiplicity 1
 O        -2.749678         3.813478         1.693264
 C        -1.860614         2.797410         1.608347
 C        -1.307962         2.196216         0.362933
 C        -0.537858         1.031505         1.144472
 O         0.230684        -0.195987         0.683686
 C        -1.719825         0.415240         2.069650
 C        -2.168958         1.719569         2.745757
 C        -0.915799         2.658299         2.783911
 C         0.306646         1.822306         2.218584
 H        -2.096374         4.556333         1.471081
 H        -2.108529         1.877144        -0.340369
 H        -0.561368         2.850280        -0.147358
 H         0.917486         0.201044         0.091366
 H        -2.442938         0.069516         1.331487
 H        -1.252773        -0.388666         2.713554
 H        -3.080055         1.741060         3.356600
 H        -0.638134         3.360672         3.572002
 H         1.119943         2.505778         1.920975
 H         0.567659         1.051021         2.917443
