19
Iteration:  1502charge 0 multiplicity 1
 O        -2.770144         3.823874         1.575921
 C        -1.874756         2.779705         1.660085
 C        -1.424918         1.996713         0.450147
 C        -0.581184         0.942190         1.309212
 O         0.158439        -0.115260         0.600490
 C        -1.624789         0.432625         2.243621
 C        -2.037544         1.798359         2.753895
 C        -0.747200         2.722417         2.690918
 C         0.331195         1.904510         2.110350
 H        -2.361848         4.649850         1.247998
 H        -2.265807         1.423973        -0.065619
 H        -0.714729         2.650054        -0.147428
 H        -0.449205        -0.581315         0.053417
 H        -2.539557         0.039941         1.762778
 H        -1.315655        -0.389349         2.885772
 H        -2.839741         1.875784         3.511256
 H        -0.530605         3.636485         3.263238
 H         0.961202         2.565809         1.449093
 H         1.031000         1.269445         2.718499
