19
Iteration:   889
 O        -2.829686         3.836383         1.396272
 C        -1.836459         2.807929         1.743963
 C        -1.305289         2.049286         0.537379
 C        -0.486446         0.875844         1.177702
 O         0.094748        -0.094944         0.424075
 C        -1.636568         0.412737         2.192174
 C        -2.120156         1.782437         2.777941
 C        -0.829435         2.742863         2.859450
 C         0.314305         1.809521         2.280574
 H        -2.303269         4.661791         1.602410
 H        -2.259067         1.779896        -0.003988
 H        -0.566159         2.614303        -0.181998
 H         0.970201         0.133773        -0.072038
 H        -2.339248        -0.307874         1.810416
 H        -1.290625        -0.162999         3.095555
 H        -3.091181         2.039520         3.292237
 H        -0.712290         3.519452         3.654355
 H         1.187323         2.351633         1.851950
 H         0.630681         1.132917         3.100011
