19
Iteration:  1657charge 0 multiplicity 1
 O        -2.779292         3.843695         1.450295
 C        -1.803187         2.866083         1.609468
 C        -1.371676         1.944387         0.509549
 C        -0.588206         0.900053         1.349427
 O         0.083986         0.041319         0.437050
 C        -1.601578         0.362415         2.355648
 C        -2.045194         1.797206         2.795582
 C        -0.813704         2.691703         2.733813
 C         0.365152         1.824387         2.208599
 H        -2.422654         4.562829         0.890644
 H        -2.239485         1.601997        -0.046723
 H        -0.626492         2.422344        -0.200658
 H        -0.512329        -0.598644        -0.043864
 H        -2.411372        -0.184820         1.812607
 H        -1.186003        -0.220016         3.142374
 H        -2.812555         1.917628         3.557700
 H        -0.661035         3.436361         3.537040
 H         0.979688         2.426640         1.561629
 H         0.993136         1.243782         2.959263
