19
Iteration:  2513
 O        -2.690230         3.919501         1.544903
 C        -1.855805         2.760834         1.556891
 C        -1.477084         1.922601         0.434987
 C        -0.611638         0.947687         1.241385
 O         0.108332        -0.089866         0.631837
 C        -1.603004         0.429071         2.347474
 C        -1.938779         1.809586         2.850510
 C        -0.812718         2.726431         2.686705
 C         0.330141         1.840351         2.082410
 H        -3.527083         3.603584         1.230589
 H        -2.286302         1.356864         0.006208
 H        -1.176439         2.565912        -0.442048
 H         0.688063         0.320946        -0.084989
 H        -2.427953        -0.275862         1.904539
 H        -1.033911        -0.217597         3.097178
 H        -2.822103         2.048344         3.499751
 H        -0.741289         3.576670         3.386043
 H         0.895855         2.557213         1.451817
 H         1.048558         1.351389         2.837580
