19
Iteration:  2079charge 0 multiplicity 1
 O        -2.654412         3.915735         1.400864
 C        -1.915777         2.773378         1.629814
 C        -1.504789         1.875352         0.477200
 C        -0.523142         0.936365         1.283000
 O         0.104740        -0.016037         0.457524
 C        -1.444243         0.401106         2.391166
 C        -2.052301         1.806758         2.843358
 C        -0.839530         2.747323         2.853258
 C         0.311236         1.898983         2.112133
 H        -3.492848         3.624586         1.059646
 H        -2.269858         1.307836         0.118363
 H        -1.025475         2.357448        -0.311505
 H        -0.432511        -0.112901        -0.326176
 H        -2.236909        -0.269020         2.102418
 H        -0.909460        -0.070836         3.256471
 H        -2.956709         1.799974         3.495522
 H        -0.605937         3.523781         3.612150
 H         1.153208         2.401328         1.598029
 H         0.878299         1.180898         2.692939
