19
Iteration:  3572
 O        -2.809504         3.914865         1.439866
 C        -1.905910         2.839281         1.629378
 C        -1.469967         1.973857         0.475357
 C        -0.509622         0.909552         1.260333
 O         0.040134        -0.136549         0.549489
 C        -1.500068         0.412733         2.257415
 C        -1.947550         1.807371         2.853576
 C        -0.782880         2.684945         2.675556
 C         0.335547         1.901209         2.112164
 H        -3.315205         4.170638         2.255803
 H        -2.341407         1.468144        -0.029985
 H        -1.043177         2.365270        -0.405682
 H         0.921733        -0.291933         0.956474
 H        -2.310899        -0.220525         1.861743
 H        -1.068254        -0.269839         2.987022
 H        -2.693570         2.007641         3.668203
 H        -0.650131         3.553381         3.320824
 H         0.992035         2.482981         1.501086
 H         0.856653         1.335406         2.989947
