19
Iteration:  2031charge 0 multiplicity 1
 O        -2.769000         3.988871         1.534868
 C        -1.929778         2.710459         1.684149
 C        -1.360081         1.868918         0.497007
 C        -0.572965         0.844885         1.292579
 O         0.195639        -0.084646         0.503118
 C        -1.621817         0.416038         2.329280
 C        -1.999369         1.838900         2.904168
 C        -0.792842         2.732156         2.623551
 C         0.339545         1.929811         2.115172
 H        -3.527909         3.544966         1.065041
 H        -2.209124         1.382151         0.066841
 H        -0.785266         2.507766        -0.186595
 H        -0.059750        -0.060127        -0.485571
 H        -2.506976        -0.031098         1.780111
 H        -1.204202        -0.284746         3.057525
 H        -2.895581         1.980279         3.517908
 H        -0.678393         3.612332         3.228210
 H         0.786046         2.547145         1.334318
 H         1.186730         1.641494         2.785466
