19
Iteration:  2475charge 0 multiplicity 1
 O        -2.665550         3.992510         1.534268
 C        -2.010650         2.706890         1.680134
 C        -1.444973         1.884828         0.460672
 C        -0.513965         0.900613         1.259743
 O         0.134778        -0.112562         0.446557
 C        -1.581889         0.451511         2.363708
 C        -1.985839         1.818374         2.918651
 C        -0.856364         2.704933         2.617637
 C         0.331241         1.930444         2.065734
 H        -3.513035         4.012593         1.023048
 H        -2.242679         1.245695         0.011225
 H        -0.878348         2.619964        -0.188270
 H         0.650163        -0.604033         1.200056
 H        -2.360366        -0.143642         1.960242
 H        -1.115853        -0.150812         3.150882
 H        -2.780920         2.006746         3.608181
 H        -0.778412         3.581381         3.242842
 H         0.907432         2.552835         1.378537
 H         1.032627         1.432425         2.632669
