19
Iteration:  4634charge 0 multiplicity 1
 O        -2.860069         3.691229         1.414588
 C        -1.920916         2.724602         1.711621
 C        -1.573392         1.808737         0.578843
 C        -0.544906         0.910649         1.283445
 O        -0.012264        -0.048227         0.412408
 C        -1.610260         0.537597         2.458096
 C        -1.873416         1.888888         2.977239
 C        -0.686309         2.852316         2.510693
 C         0.496590         1.919866         1.982107
 H        -2.656329         4.461839         1.928801
 H        -2.342412         1.290380         0.057538
 H        -0.937552         2.392632        -0.056246
 H         0.654052        -0.402354         0.993301
 H        -2.558725         0.200726         1.923625
 H        -1.348713        -0.293774         3.092571
 H        -2.444773         2.194873         3.817126
 H        -0.419212         3.777236         3.034363
 H         1.214210         2.387172         1.283598
 H         1.013186         1.385379         2.768775
