19
Iteration:  4111charge 0 multiplicity 1
 O        -2.789173         3.722567         1.403128
 C        -1.872567         2.762697         1.650917
 C        -1.495935         1.904615         0.473139
 C        -0.552057         0.937234         1.284693
 O        -0.046286        -0.060292         0.490558
 C        -1.630999         0.532081         2.397090
 C        -1.811121         1.910181         2.899319
 C        -0.679041         2.812162         2.703773
 C         0.353044         1.856302         2.039393
 H        -3.576306         3.542974         1.980914
 H        -2.359065         1.296682         0.097613
 H        -1.032754         2.354572        -0.438697
 H         0.819777        -0.449123         0.833649
 H        -2.503371         0.154627         1.798503
 H        -1.109624        -0.223052         3.014814
 H        -2.591058         2.102795         3.710339
 H        -0.189997         3.628369         3.234193
 H         1.007464         2.404879         1.334423
 H         0.838168         1.410137         2.859203
