19
Iteration:    24
 O        -2.820270         3.722053         1.406950
 C        -1.963951         2.679307         1.670069
 C        -1.339183         2.048400         0.431719
 C        -0.503006         1.009642         1.216007
 O        -0.061733        -0.084494         0.335444
 C        -1.542303         0.522767         2.364940
 C        -2.001074         1.835620         2.881873
 C        -0.750980         2.726498         2.800664
 C         0.418458         1.849600         2.283757
 H        -3.510677         3.736361         2.144151
 H        -2.061366         1.580638        -0.255438
 H        -0.705458         2.743130        -0.144153
 H         0.819848         0.190946        -0.113188
 H        -2.365617        -0.041881         2.001554
 H        -1.010210        -0.156229         3.076730
 H        -2.757040         1.927401         3.666017
 H        -0.544997         3.686885         3.226818
 H         1.237780         2.329492         1.805053
 H         0.860711         1.136057         3.027298
