19
Iteration:  2601charge 0 multiplicity 1
 O        -2.717135         3.983534         1.500724
 C        -1.927765         2.789565         1.665668
 C        -1.512734         1.915377         0.449016
 C        -0.508825         0.913680         1.265836
 O         0.196339        -0.066658         0.527185
 C        -1.680243         0.383415         2.320404
 C        -1.958655         1.762118         2.834244
 C        -0.746922         2.776112         2.644478
 C         0.335026         1.897349         2.144968
 H        -3.630211         3.741592         1.527983
 H        -2.306770         1.494842        -0.140524
 H        -0.957058         2.469325        -0.324851
 H         0.013327        -1.065030         0.619788
 H        -2.388671         0.018393         1.540928
 H        -1.393830        -0.298763         3.066131
 H        -2.661595         1.788558         3.654323
 H        -0.460082         3.608971         3.253777
 H         1.060241         2.451321         1.635937
 H         0.744306         1.280860         2.935037
