19
Iteration:  3422
 O        -2.862485         3.848042         1.392899
 C        -1.956447         2.780061         1.648251
 C        -1.489147         1.961132         0.414157
 C        -0.554159         0.937301         1.252814
 O         0.041050        -0.044997         0.472423
 C        -1.493404         0.462693         2.327402
 C        -1.989397         1.789596         2.842565
 C        -0.747981         2.702398         2.712354
 C         0.369387         1.790005         2.230494
 H        -2.409807         4.682258         1.659368
 H        -2.239775         1.299884        -0.020838
 H        -0.927314         2.584644        -0.206999
 H         1.016532         0.004194         0.656596
 H        -2.223370        -0.056837         1.695890
 H        -1.109476        -0.091163         3.151528
 H        -2.376850         1.881466         3.849082
 H        -0.538781         3.537498         3.348210
 H         1.252579         2.364451         1.869714
 H         0.692082         1.262487         3.114363
