19
Iteration:  2374charge 0 multiplicity 1
 O        -2.684737         3.884005         1.604669
 C        -1.924535         2.758348         1.598070
 C        -1.523379         1.849623         0.418080
 C        -0.581168         0.979689         1.204877
 O         0.048451        -0.150243         0.601605
 C        -1.538005         0.476182         2.358255
 C        -2.026774         1.816755         2.795365
 C        -0.801003         2.721928         2.670182
 C         0.434613         1.994033         2.035104
 H        -3.600567         3.814522         1.238402
 H        -2.448094         1.233537        -0.045168
 H        -0.895844         2.273834        -0.449667
 H         0.978689        -0.139477         0.648101
 H        -2.258223        -0.154401         1.939858
 H        -0.977102        -0.182828         3.015467
 H        -2.689878         2.140504         3.599308
 H        -0.742755         3.435614         3.521619
 H         1.096588         2.671415         1.583881
 H         0.914978         1.410002         2.801117
