19
Iteration:  2716charge 0 multiplicity 1
 O        -2.834953         3.899355         1.476305
 C        -1.798828         2.828096         1.629150
 C        -1.321615         1.928862         0.426805
 C        -0.602812         0.891601         1.280373
 O         0.105550        -0.009791         0.465811
 C        -1.633223         0.450551         2.343997
 C        -2.029056         1.861466         2.838045
 C        -0.744225         2.714252         2.742078
 C         0.266264         1.752381         2.146605
 H        -3.709529         3.598409         1.692477
 H        -2.127028         1.431726        -0.097304
 H        -0.752652         2.352684        -0.284741
 H         0.918482        -0.353569         0.976975
 H        -2.393802        -0.081123         1.792333
 H        -0.960242        -0.101516         3.048026
 H        -2.778015         2.291797         3.506130
 H        -0.304659         3.494172         3.315045
 H         0.916827         2.336757         1.393507
 H         0.893543         1.078264         2.805558
