19
Iteration:   893
 O        -2.798138         3.829398         1.363173
 C        -1.824373         2.796857         1.782326
 C        -1.314846         2.033655         0.508424
 C        -0.464376         0.907853         1.183045
 O         0.079566        -0.061041         0.412973
 C        -1.619454         0.372789         2.236682
 C        -2.147563         1.776680         2.775211
 C        -0.838460         2.764022         2.859231
 C         0.314226         1.794345         2.283135
 H        -2.354306         4.627730         1.671226
 H        -2.239044         1.813556        -0.017111
 H        -0.682078         2.522305        -0.205050
 H         0.818169         0.168087        -0.093509
 H        -2.360259        -0.292144         1.689825
 H        -1.337237        -0.083750         3.158318
 H        -3.072579         2.067085         3.266539
 H        -0.599266         3.406317         3.702931
 H         1.110272         2.354494         1.865684
 H         0.620911         1.161565         3.110176
