19
Iteration:   158charge 0 multiplicity 1
 O        -2.807578         3.816619         1.425383
 C        -1.861783         2.791781         1.707179
 C        -1.282392         2.072826         0.516434
 C        -0.533593         0.960926         1.261652
 O         0.011434        -0.011561         0.516477
 C        -1.610531         0.366231         2.216261
 C        -1.974406         1.748784         2.869990
 C        -0.792920         2.701055         2.671104
 C         0.358024         1.841195         2.248664
 H        -3.669269         3.301219         1.427855
 H        -2.034332         1.954486        -0.299320
 H        -0.527108         2.783480         0.059070
 H        -0.114756         0.277741        -0.427295
 H        -2.365028         0.027828         1.497884
 H        -1.259763        -0.468577         2.884308
 H        -2.597201         1.930483         3.723141
 H        -0.549044         3.473832         3.397004
 H         1.235204         2.291690         1.785655
 H         0.666818         1.154415         3.100047
