19
Iteration:  1230charge 0 multiplicity 1
 O        -2.741680         3.868359         1.673424
 C        -1.919760         2.757544         1.668573
 C        -1.349212         1.993549         0.309356
 C        -0.583161         0.922503         1.225963
 O         0.201986        -0.119561         0.590415
 C        -1.623365         0.517002         2.289334
 C        -1.975776         1.830358         2.800507
 C        -0.833987         2.669356         2.765010
 C         0.310210         1.901594         2.038597
 H        -3.383336         3.900918         0.976477
 H        -2.044384         1.606824        -0.339642
 H        -0.646276         2.497376        -0.365817
 H        -0.408232        -0.842639         0.578962
 H        -2.602917         0.131460         1.844951
 H        -1.229302        -0.128015         3.071346
 H        -2.869919         1.902712         3.463458
 H        -0.724227         3.481228         3.444013
 H         0.926732         2.488821         1.380549
 H         1.002779         1.280814         2.677436
