19
Iteration:  4024charge 0 multiplicity 1
 O        -2.720800         3.916704         1.450084
 C        -1.912669         2.781451         1.638149
 C        -1.533479         1.847832         0.504708
 C        -0.577865         0.945057         1.277731
 O         0.050309        -0.028647         0.455912
 C        -1.494319         0.406376         2.437558
 C        -2.010292         1.813800         2.901413
 C        -0.777592         2.704321         2.739648
 C         0.367756         1.930251         1.989350
 H        -2.909751         3.923465         0.501541
 H        -2.500345         1.354858         0.175811
 H        -0.874191         2.239408        -0.326074
 H         0.486550        -0.655964         1.176711
 H        -2.262315        -0.316114         1.940848
 H        -0.823966        -0.270910         3.143976
 H        -2.832680         2.014981         3.680584
 H        -0.684893         3.584166         3.378985
 H         0.930772         2.719552         1.424064
 H         1.131905         1.455692         2.653697
