19
Iteration:  4709
 O        -2.800383         3.919149         1.395818
 C        -1.975194         2.705906         1.678769
 C        -1.564786         1.767288         0.532223
 C        -0.565319         0.825165         1.367054
 O         0.085143        -0.038067         0.399027
 C        -1.545105         0.400258         2.467627
 C        -1.890885         1.902276         2.985335
 C        -0.757861         2.756480         2.578818
 C         0.411337         2.036437         1.935483
 H        -2.458923         4.622774         2.021740
 H        -2.444688         1.212005         0.213720
 H        -1.109442         2.257915        -0.326204
 H         0.295486        -0.871918         0.994597
 H        -2.324187        -0.131357         1.917520
 H        -1.250999        -0.371512         3.182480
 H        -2.478051         2.099996         3.858080
 H        -0.644790         3.713391         3.119261
 H         1.039850         2.579211         1.214552
 H         1.143621         1.469714         2.642459
