19
Iteration:  2748
 O        -2.611756         3.934546         1.545021
 C        -1.948659         2.698222         1.690846
 C        -1.421901         2.011286         0.422077
 C        -0.541660         0.969570         1.262852
 O         0.094642        -0.163078         0.536322
 C        -1.542106         0.416588         2.280092
 C        -2.087580         1.760163         2.832784
 C        -0.832008         2.743850         2.621790
 C         0.289261         1.949772         2.096313
 H        -3.577701         3.813809         1.312292
 H        -2.228735         1.502257        -0.136919
 H        -0.923981         2.717440        -0.159401
 H         0.622363        -0.741524         1.120125
 H        -2.268966        -0.251618         1.801336
 H        -1.188764        -0.321767         3.032550
 H        -2.743157         2.107410         3.647733
 H        -0.598547         3.545870         3.282641
 H         0.974546         2.636802         1.528568
 H         0.901472         1.456860         2.895838
