19
Iteration:  1854charge 0 multiplicity 1
 O        -2.749426         3.898799         1.526597
 C        -1.955515         2.795595         1.644419
 C        -1.416604         2.016088         0.402800
 C        -0.534293         0.930748         1.219180
 O         0.180003        -0.201989         0.688366
 C        -1.588565         0.516737         2.224973
 C        -1.967468         1.756685         2.843135
 C        -0.790516         2.711995         2.660071
 C         0.327441         1.914535         2.130708
 H        -3.623020         3.790027         1.974152
 H        -2.268716         1.534647        -0.081762
 H        -0.994173         2.705130        -0.388997
 H        -0.318190        -0.424046        -0.217118
 H        -2.442765        -0.130274         1.708434
 H        -1.177422        -0.169682         2.993413
 H        -2.771018         2.003469         3.507718
 H        -0.525792         3.477317         3.329162
 H         1.037428         2.503071         1.498170
 H         0.986273         1.253591         2.851397
