19
Iteration:  4492charge 0 multiplicity 1
 O        -2.795049         3.700861         1.503684
 C        -1.872138         2.699309         1.659636
 C        -1.509917         1.861687         0.512411
 C        -0.569039         0.942129         1.324380
 O        -0.111100        -0.044651         0.389811
 C        -1.530498         0.505904         2.476057
 C        -1.825088         1.896524         2.924144
 C        -0.730420         2.841545         2.542813
 C         0.383843         1.953892         2.050191
 H        -2.806593         3.788801         0.539207
 H        -2.396140         1.437290         0.051756
 H        -0.778308         2.335695        -0.149278
 H         0.448485        -0.751603         0.733180
 H        -2.430876        -0.119810         2.167876
 H        -1.016171        -0.070025         3.252049
 H        -2.447866         2.181165         3.835854
 H        -0.500610         3.690887         3.171692
 H         1.139562         2.395574         1.377436
 H         0.791800         1.601360         2.955991
