19
Iteration:  4237charge 0 multiplicity 1
 O        -2.837561         3.695696         1.392689
 C        -1.807600         2.798840         1.662966
 C        -1.471505         1.975682         0.490399
 C        -0.631167         0.900359         1.254050
 O        -0.125299        -0.194134         0.579171
 C        -1.422382         0.516143         2.482763
 C        -1.900550         1.899112         2.857832
 C        -0.696220         2.814979         2.619042
 C         0.388952         1.934139         1.980748
 H        -3.310456         3.937905         2.188026
 H        -2.410420         1.675728         0.014429
 H        -0.765671         2.303811        -0.275927
 H         0.156614         0.152529        -0.361281
 H        -2.187044        -0.261275         2.425926
 H        -0.730712         0.125708         3.314179
 H        -2.654919         1.947446         3.726223
 H        -0.623247         3.715106         3.241011
 H         1.151361         2.387858         1.363526
 H         0.934013         1.311735         2.745824
