19
Iteration:  3359charge 0 multiplicity 1
 O        -2.753345         3.960075         1.555911
 C        -1.960025         2.750612         1.700117
 C        -1.434862         1.994056         0.459007
 C        -0.516058         0.985427         1.195267
 O         0.065956        -0.163557         0.722063
 C        -1.550313         0.396749         2.177776
 C        -2.031862         1.715452         2.784419
 C        -0.760095         2.669513         2.705337
 C         0.359515         1.956998         2.121987
 H        -3.152470         3.963472         0.645089
 H        -2.259317         1.431022        -0.031965
 H        -1.082534         2.813532        -0.348593
 H         0.470631         0.034656        -0.117945
 H        -2.241107        -0.228373         1.655223
 H        -0.937172        -0.212681         2.888692
 H        -2.747563         1.799557         3.623225
 H        -0.536748         3.523943         3.303521
 H         1.064374         2.630258         1.458699
 H         0.817860         1.273495         2.876496
