19
Iteration:  2258charge 0 multiplicity 1
 O        -2.709327         3.815721         1.635615
 C        -1.966930         2.692862         1.686491
 C        -1.363503         1.919544         0.376107
 C        -0.572077         1.003106         1.186092
 O         0.163812        -0.140600         0.662341
 C        -1.583224         0.508959         2.376448
 C        -2.008433         1.823262         2.828430
 C        -0.780438         2.775327         2.604558
 C         0.277637         1.952291         1.967764
 H        -3.674218         3.769789         1.672477
 H        -2.023077         1.485901        -0.285507
 H        -0.654516         2.657277        -0.109208
 H        -0.439684        -0.468512         0.068424
 H        -2.391992        -0.221264         1.953013
 H        -1.041725        -0.170244         3.070706
 H        -2.876263         1.839693         3.487610
 H        -0.514391         3.731444         3.092554
 H         1.084915         2.668354         1.434187
 H         0.905445         1.202230         2.657325
