19
Iteration:  3692
 O        -2.896692         3.812494         1.532966
 C        -1.988509         2.758847         1.622553
 C        -1.328142         1.952529         0.506371
 C        -0.550870         0.878277         1.349583
 O         0.098575        -0.113156         0.530862
 C        -1.636803         0.474056         2.396929
 C        -1.973053         1.829087         2.803773
 C        -0.753367         2.815946         2.547568
 C         0.386593         1.784263         2.060908
 H        -2.300394         4.513128         1.802486
 H        -2.120838         1.691682        -0.297500
 H        -0.677197         2.695669        -0.132426
 H         0.621666         0.294179        -0.149163
 H        -2.537396        -0.020476         2.064994
 H        -1.317249        -0.090169         3.247910
 H        -2.571904         1.902891         3.691604
 H        -0.614746         3.724789         3.170167
 H         1.077155         2.221074         1.232507
 H         1.004059         1.350334         3.007843
