19
Iteration:   974charge 0 multiplicity 1
 O        -2.732138         3.957951         1.671226
 C        -1.885973         2.798369         1.624380
 C        -1.309337         1.965026         0.283232
 C        -0.582624         0.983698         1.235862
 O         0.136865        -0.058306         0.744542
 C        -1.646958         0.423669         2.143198
 C        -2.075297         1.780791         2.731952
 C        -0.776022         2.630336         2.794898
 C         0.314988         1.835889         2.101321
 H        -3.568399         3.574942         1.456895
 H        -1.904016         1.267148        -0.287853
 H        -0.727935         2.546962        -0.371059
 H         0.123641        -0.007436        -0.179620
 H        -2.468225         0.074043         1.526271
 H        -1.136446        -0.322934         2.857924
 H        -2.895750         2.087250         3.458838
 H        -0.717257         3.446234         3.531349
 H         1.296561         2.242367         1.673807
 H         0.736200         1.091424         2.828201
