19
Iteration:  3615
 O        -2.690163         3.919524         1.577270
 C        -1.920160         2.760274         1.592228
 C        -1.383757         1.899316         0.481179
 C        -0.642213         0.875358         1.314281
 O         0.134228        -0.083898         0.523835
 C        -1.618625         0.380921         2.402813
 C        -1.909599         1.809288         2.870143
 C        -0.824629         2.783139         2.613169
 C         0.248764         1.854761         2.062287
 H        -3.251856         3.996520         0.760551
 H        -2.119312         1.398548        -0.226326
 H        -0.847504         2.471374        -0.294962
 H         0.728927         0.430262         0.014631
 H        -2.485278        -0.161821         2.081488
 H        -0.989550        -0.198915         3.055416
 H        -2.739765         1.989612         3.618555
 H        -0.831378         3.716512         3.241602
 H         0.734479         2.531909         1.274801
 H         0.975684         1.494235         2.944032
