19
Iteration:  4061
 O        -2.785296         3.886575         1.525172
 C        -1.935307         2.686223         1.644241
 C        -1.450310         1.851229         0.455652
 C        -0.574241         0.921675         1.238191
 O        -0.021761        -0.143231         0.509164
 C        -1.484308         0.408628         2.422367
 C        -1.964460         1.802010         2.895249
 C        -0.834545         2.791531         2.614701
 C         0.374254         2.011668         2.043847
 H        -2.217102         4.649155         1.413452
 H        -2.296875         1.505661        -0.120671
 H        -0.771359         2.343037        -0.269464
 H         0.929628        -0.262971         0.837324
 H        -2.268420        -0.115754         1.883603
 H        -0.992556        -0.194803         3.203419
 H        -2.677679         2.098932         3.605096
 H        -0.606216         3.741564         3.098826
 H         0.908740         2.600977         1.292917
 H         0.992014         1.457581         2.845520
