19
Iteration:  3258charge 0 multiplicity 1
 O        -2.682696         3.915433         1.468173
 C        -2.016599         2.698713         1.666503
 C        -1.401724         2.057560         0.461356
 C        -0.493948         0.997252         1.213990
 O         0.033601        -0.150658         0.579510
 C        -1.557940         0.422933         2.307215
 C        -1.959493         1.712705         2.860447
 C        -0.840637         2.713317         2.655158
 C         0.292367         1.896694         2.104100
 H        -3.613993         3.894390         1.693665
 H        -2.178245         1.517106        -0.159293
 H        -0.725127         2.779887        -0.124406
 H         0.974992        -0.090255         0.315866
 H        -2.346553        -0.098286         1.820207
 H        -1.000128        -0.151986         3.005150
 H        -2.709340         1.889023         3.649167
 H        -0.603695         3.519036         3.365789
 H         1.168390         2.493835         1.601077
 H         0.825998         1.418132         2.952877
