19
Iteration:   830charge 0 multiplicity 1
 O        -2.741354         3.979668         1.696404
 C        -1.846382         2.811879         1.638472
 C        -1.383563         2.086737         0.342141
 C        -0.477355         0.838399         1.259218
 O         0.225987        -0.164141         0.623651
 C        -1.665923         0.415604         2.117935
 C        -2.108972         1.775061         2.700989
 C        -0.872995         2.631670         2.783336
 C         0.213517         1.867758         2.204751
 H        -2.852794         4.237560         0.745268
 H        -2.273083         1.673881        -0.164196
 H        -0.757330         2.645141        -0.366748
 H         1.080050        -0.026781         0.207669
 H        -2.395455        -0.007133         1.385685
 H        -1.375990        -0.325279         2.932650
 H        -2.874230         1.801659         3.465076
 H        -0.814775         3.245016         3.663783
 H         0.948171         2.591926         1.651158
 H         0.935707         1.388030         2.920786
