19
Iteration:  1611charge 0 multiplicity 1
 O        -2.721632         3.909985         1.669449
 C        -1.878560         2.796342         1.649301
 C        -1.457330         2.052232         0.306836
 C        -0.613870         0.877070         1.231004
 O         0.247879        -0.061975         0.786575
 C        -1.649514         0.438066         2.235865
 C        -2.037173         1.697102         2.734516
 C        -0.787756         2.647438         2.617246
 C         0.239545         1.887514         1.980324
 H        -2.049105         4.536547         1.941838
 H        -2.371668         1.710288        -0.263823
 H        -0.745121         2.641299        -0.284544
 H        -0.227796        -0.858204         0.636707
 H        -2.496665        -0.117893         1.744843
 H        -1.166502        -0.148593         3.099693
 H        -2.779772         1.978050         3.460806
 H        -0.493016         3.487122         3.175452
 H         1.023480         2.454960         1.378030
 H         0.778081         1.398315         2.870358
