19
Iteration:  1493
 O        -2.758509         3.888250         1.654976
 C        -1.864407         2.753254         1.599986
 C        -1.422188         1.984149         0.423077
 C        -0.553614         0.980601         1.215794
 O         0.134112        -0.106258         0.711942
 C        -1.622839         0.367984         2.238039
 C        -1.952707         1.739384         2.754622
 C        -0.834909         2.754546         2.651548
 C         0.296520         1.908447         2.076678
 H        -2.122841         4.588189         1.397642
 H        -2.240570         1.478193        -0.111707
 H        -0.812519         2.565831        -0.372264
 H        -0.532879        -0.567942         0.221413
 H        -2.397988        -0.018212         1.557257
 H        -1.191038        -0.406578         2.817089
 H        -2.711861         2.032233         3.509641
 H        -0.709121         3.553686         3.372078
 H         0.987950         2.367943         1.432810
 H         0.847188         1.433065         2.911168
