19
Iteration:  3262
 O        -2.678028         3.922200         1.440906
 C        -2.028994         2.671852         1.655825
 C        -1.406529         2.034108         0.448226
 C        -0.508731         1.018954         1.185471
 O         0.038244        -0.151057         0.564493
 C        -1.546346         0.465574         2.311894
 C        -1.939187         1.723681         2.898443
 C        -0.867473         2.725576         2.698511
 C         0.326086         1.860606         2.102029
 H        -3.606954         3.793099         1.774496
 H        -2.218707         1.633984        -0.129471
 H        -0.715455         2.690901        -0.152208
 H         0.982811        -0.023684         0.388738
 H        -2.447839         0.023820         1.806781
 H        -0.854545        -0.215470         2.930471
 H        -2.662445         1.842422         3.671174
 H        -0.682291         3.507006         3.418883
 H         1.104476         2.413797         1.667785
 H         0.664446         1.389923         3.037750
