19
Iteration:  3513
 O        -2.814769         3.877319         1.506635
 C        -1.895842         2.807804         1.648173
 C        -1.487043         1.876372         0.455443
 C        -0.550912         0.921325         1.247699
 O         0.090504         0.008193         0.387262
 C        -1.540146         0.347095         2.347042
 C        -1.948857         1.823889         2.810160
 C        -0.756272         2.827688         2.731740
 C         0.367677         1.883280         2.219020
 H        -2.926376         4.036481         0.565956
 H        -2.289477         1.214940         0.309591
 H        -0.964313         2.335495        -0.442844
 H         0.099211        -0.887347         0.905998
 H        -2.399844        -0.177009         2.014409
 H        -1.002827        -0.161431         3.136801
 H        -2.796606         1.935567         3.474617
 H        -0.884801         3.511049         3.580615
 H         1.349238         2.277415         1.673477
 H         0.816353         1.308893         3.072476
