19
Iteration:  2289charge 0 multiplicity 1
 O        -2.853012         3.843940         1.482685
 C        -1.904977         2.890073         1.689170
 C        -1.436510         1.961590         0.503154
 C        -0.528314         0.895686         1.270061
 O         0.147292        -0.086562         0.473746
 C        -1.577937         0.430464         2.391620
 C        -1.943659         1.796769         2.759794
 C        -0.707151         2.833794         2.625268
 C         0.323180         1.853682         2.112203
 H        -3.767710         3.496087         1.509582
 H        -2.269979         1.440160         0.131728
 H        -0.839989         2.497605        -0.298136
 H        -0.497558        -0.907859         0.544600
 H        -2.354616        -0.243943         1.944001
 H        -1.002034        -0.145144         3.202110
 H        -2.570046         1.976597         3.610116
 H        -0.548931         3.513054         3.480351
 H         1.176288         2.389212         1.520236
 H         0.951454         1.331585         2.940893
