19
Iteration:   397
 O        -2.517540         3.924198         1.469570
 C        -1.896088         2.723082         1.678509
 C        -1.357643         1.985467         0.564439
 C        -0.555932         1.008392         1.291053
 O         0.074870         0.158114         0.490730
 C        -1.616212         0.295726         2.204240
 C        -2.174169         1.697760         2.702585
 C        -0.896464         2.584435         2.762989
 C         0.289646         1.816424         2.308886
 H        -2.884195         3.791040         0.535488
 H        -2.204457         1.529695         0.109775
 H        -1.024131         2.582376        -0.305734
 H         0.730712         0.637839        -0.031754
 H        -2.284956        -0.289764         1.665456
 H        -1.102925        -0.308653         3.013292
 H        -3.081268         1.820126         3.342912
 H        -0.637765         3.433063         3.461171
 H         0.940071         2.325705         1.668761
 H         0.792005         1.231187         3.141100
