19
Iteration:   579charge 0 multiplicity 1
 O        -2.765846         3.913635         1.637446
 C        -1.926425         2.749436         1.696839
 C        -1.226410         2.121122         0.379109
 C        -0.528015         0.999355         1.185348
 O         0.166572        -0.083410         0.682879
 C        -1.659871         0.401738         2.055816
 C        -2.135573         1.690623         2.676366
 C        -0.855606         2.622983         2.756668
 C         0.226338         1.773895         2.241768
 H        -2.311707         4.732834         1.924634
 H        -1.982622         1.724696        -0.384264
 H        -0.524598         2.847158        -0.139325
 H         0.873825         0.101232        -0.028712
 H        -2.430318        -0.124717         1.443527
 H        -1.241443        -0.392680         2.726712
 H        -2.779801         1.875342         3.502293
 H        -0.897409         3.505965         3.378785
 H         1.033215         2.363222         1.745171
 H         0.782691         1.167438         2.922556
