19
Iteration:  2844
 O        -2.716331         3.823540         1.551499
 C        -1.872660         2.755723         1.679501
 C        -1.321635         1.923544         0.483480
 C        -0.515271         0.881945         1.327649
 O        -0.024565        -0.062252         0.493952
 C        -1.637590         0.480370         2.250770
 C        -2.070646         1.820044         2.722778
 C        -0.739855         2.808780         2.678999
 C         0.376168         1.953331         2.137497
 H        -3.637659         3.430783         1.592910
 H        -2.211032         1.405108        -0.045677
 H        -0.455160         2.458404        -0.205409
 H         0.638287        -0.517783         0.927194
 H        -2.303652        -0.088000         1.566553
 H        -1.524140        -0.256632         2.990827
 H        -2.926851         1.733632         3.408150
 H        -0.641629         3.592525         3.406386
 H         0.951033         2.436126         1.446799
 H         1.018985         1.547760         2.925905
