19
Iteration:  3567
 O        -2.830832         3.905537         1.418189
 C        -1.888587         2.838550         1.654502
 C        -1.461372         1.993563         0.442831
 C        -0.539059         0.886090         1.272117
 O         0.043544        -0.141047         0.524597
 C        -1.506497         0.377195         2.317789
 C        -1.943726         1.779388         2.881044
 C        -0.761777         2.706669         2.682880
 C         0.313126         1.917971         2.096765
 H        -3.139011         4.284627         2.243860
 H        -2.301343         1.579187        -0.096373
 H        -0.818907         2.519684        -0.400704
 H         0.903346        -0.434105         0.964341
 H        -2.293138        -0.088455         1.685112
 H        -1.123960        -0.327881         3.093869
 H        -2.684632         1.912304         3.628030
 H        -0.654115         3.614065         3.272291
 H         1.014723         2.662706         1.530641
 H         0.817907         1.450286         2.920824
