19
Iteration:  4818charge 0 multiplicity 1
 O        -2.941275         3.682897         1.530363
 C        -1.867278         2.810146         1.665789
 C        -1.534286         1.896634         0.457443
 C        -0.598299         0.918208         1.205732
 O         0.095964        -0.094665         0.526642
 C        -1.563124         0.514677         2.393892
 C        -1.857974         1.922955         2.958859
 C        -0.658380         2.812673         2.655222
 C         0.321707         1.826289         1.936179
 H        -2.696272         4.413318         0.961375
 H        -2.382279         1.393516        -0.051366
 H        -0.983972         2.548907        -0.260817
 H         0.828540        -0.289860         1.063043
 H        -2.460822         0.070869         1.968070
 H        -1.091773        -0.169114         3.132622
 H        -2.437794         2.342781         3.824603
 H        -0.337995         3.762318         3.164861
 H         1.070081         2.325034         1.375681
 H         0.773626         1.163552         2.742238
