19
Iteration:   777charge 0 multiplicity 1
 O        -2.576744         3.900135         1.415881
 C        -1.858645         2.708419         1.680676
 C        -1.255213         2.043255         0.482094
 C        -0.607805         0.957792         1.196776
 O         0.097154         0.051678         0.355609
 C        -1.721939         0.339748         2.303102
 C        -2.103557         1.705285         2.859851
 C        -0.903034         2.667352         2.862460
 C         0.319258         1.868097         2.376301
 H        -3.333951         3.597021         0.830256
 H        -1.964135         1.498347        -0.218889
 H        -0.480858         2.563881        -0.213237
 H         0.715263         0.400226        -0.281421
 H        -2.576018        -0.002465         1.741274
 H        -1.247213        -0.457104         2.946733
 H        -3.078719         1.795316         3.332795
 H        -0.928204         3.511061         3.552183
 H         1.006870         2.661844         1.930256
 H         0.811365         1.127023         3.015692
