19
Iteration:  3405charge 0 multiplicity 1
 O        -2.792116         3.777747         1.494672
 C        -1.891320         2.704684         1.617846
 C        -1.418230         1.943475         0.477075
 C        -0.574163         0.967781         1.295936
 O         0.080324         0.042213         0.439903
 C        -1.626708         0.400290         2.396786
 C        -1.985522         1.848810         2.889410
 C        -0.799790         2.757320         2.613152
 C         0.336208         1.783895         2.179646
 H        -2.269688         4.427414         0.982594
 H        -2.238748         1.462089        -0.095134
 H        -0.691659         2.540381        -0.218528
 H         1.049036         0.294562         0.275053
 H        -2.569417        -0.090425         2.082936
 H        -1.017950        -0.248175         3.124442
 H        -2.892495         2.051942         3.492271
 H        -0.681417         3.609406         3.314209
 H         1.166297         2.238818         1.553554
 H         0.713722         1.116123         3.008008
