19
Iteration:  4912
 O        -2.936432         3.862897         1.470272
 C        -1.977270         2.793654         1.661843
 C        -1.485868         1.878481         0.478663
 C        -0.543155         0.927515         1.254578
 O         0.054332        -0.116474         0.568958
 C        -1.520843         0.491768         2.340550
 C        -1.863574         1.869323         2.908182
 C        -0.697118         2.731743         2.629517
 C         0.399251         1.865584         1.976038
 H        -2.433965         4.706986         1.532148
 H        -2.307095         1.320833        -0.007983
 H        -1.162750         2.650874        -0.217075
 H         0.411765        -0.759584         1.308632
 H        -2.350936        -0.134276         2.005262
 H        -0.909056        -0.124803         3.060423
 H        -2.603616         1.869523         3.724516
 H        -0.669659         3.648895         3.296061
 H         1.044986         2.311153         1.098926
 H         1.022748         1.270804         2.684514
