19
Iteration:   247
 O        -2.469529         4.013777         1.530043
 C        -1.928264         2.762509         1.750424
 C        -1.465471         1.917524         0.456939
 C        -0.488390         0.895424         1.215124
 O         0.255388        -0.002637         0.338942
 C        -1.649660         0.360320         2.237036
 C        -2.233811         1.698172         2.801266
 C        -0.973557         2.652965         2.804038
 C         0.280195         1.934108         2.194141
 H        -3.195032         4.280173         0.920506
 H        -2.404343         1.399918         0.316755
 H        -1.184623         2.546194        -0.395443
 H         0.918642        -0.373616         0.942672
 H        -2.395952        -0.340386         1.832166
 H        -1.054183        -0.118145         3.038294
 H        -2.874925         1.721693         3.723033
 H        -1.003927         3.328447         3.681911
 H         0.922261         2.673819         1.640813
 H         0.891663         1.456669         2.989518
