19
Iteration:  1556
 O        -2.758707         3.785723         1.419054
 C        -1.852163         2.739085         1.721205
 C        -1.386403         1.914033         0.531675
 C        -0.583934         0.967476         1.324775
 O         0.040442         0.058867         0.433591
 C        -1.571608         0.446203         2.305385
 C        -2.019980         1.826228         2.840996
 C        -0.774853         2.813683         2.664374
 C         0.343981         1.731893         2.265215
 H        -2.358373         4.187097         0.635392
 H        -2.180142         1.452271        -0.151474
 H        -0.795070         2.511098        -0.169127
 H        -0.466626        -0.196401        -0.276939
 H        -2.455593        -0.070723         1.893935
 H        -0.895267        -0.263651         2.845541
 H        -2.644513         2.230708         3.652740
 H        -0.768364         3.645209         3.345270
 H         1.284455         2.062662         1.701749
 H         0.584772         1.067498         3.152918
