19
Iteration:  3002charge 0 multiplicity 1
 O        -2.727991         3.876644         1.600634
 C        -1.840844         2.831302         1.600232
 C        -1.367763         1.908317         0.510339
 C        -0.518882         0.911946         1.335039
 O         0.150981        -0.043622         0.523451
 C        -1.721736         0.362413         2.212159
 C        -2.063863         1.846392         2.706743
 C        -0.779376         2.761768         2.748483
 C         0.343848         1.914172         2.114351
 H        -3.638705         3.541058         1.535176
 H        -2.375020         1.648226        -0.134709
 H        -0.789068         2.238459        -0.336677
 H         0.513309        -0.775795         0.999078
 H        -2.507067        -0.034436         1.597486
 H        -1.510258        -0.439615         2.942904
 H        -2.917941         2.165735         3.382664
 H        -0.464833         3.461588         3.505648
 H         0.909087         2.443640         1.280136
 H         1.078759         1.396209         2.629222
