19
Iteration:     6charge 0 multiplicity 1
 O        -2.766365         3.787872         1.451210
 C        -1.929949         2.696540         1.712978
 C        -1.433266         1.966457         0.486875
 C        -0.574877         0.931517         1.244776
 O         0.047867         0.015803         0.380410
 C        -1.543979         0.440024         2.276073
 C        -2.003536         1.849631         2.835614
 C        -0.762085         2.695274         2.730463
 C         0.355644         1.890669         2.147013
 H        -3.029174         4.123722         2.353176
 H        -2.193511         1.486239        -0.162140
 H        -0.789811         2.695313        -0.067932
 H         0.709403        -0.382285         1.004741
 H        -2.295881        -0.245764         1.838277
 H        -1.055284        -0.199206         3.048362
 H        -2.801513         1.954994         3.582178
 H        -0.740755         3.561151         3.406720
 H         1.088666         2.594417         1.690231
 H         0.977932         1.311148         2.889703
