19
Iteration:   450charge 0 multiplicity 1
 O        -2.746584         3.898864         1.669532
 C        -1.887508         2.833906         1.649242
 C        -1.262696         2.103742         0.405659
 C        -0.501310         0.977057         1.248039
 O         0.084375        -0.113540         0.650208
 C        -1.634843         0.402716         2.081653
 C        -2.101071         1.730285         2.638229
 C        -0.865564         2.695112         2.731358
 C         0.336601         1.793540         2.217947
 H        -3.608517         3.537274         1.325451
 H        -1.913307         1.756589        -0.370110
 H        -0.640858         2.855720         0.017440
 H         0.969298         0.060406         0.311246
 H        -2.320347         0.017318         1.364317
 H        -1.300247        -0.373117         2.807570
 H        -2.818346         1.806529         3.463810
 H        -0.865843         3.391222         3.593587
 H         1.231271         2.187495         1.723974
 H         0.533541         1.162196         3.099157
