19
Iteration:  2834
 O        -2.716795         3.832175         1.488371
 C        -1.818525         2.733324         1.630442
 C        -1.324756         1.973504         0.496625
 C        -0.548854         0.966435         1.335047
 O         0.003698        -0.026541         0.466859
 C        -1.668164         0.437282         2.281332
 C        -2.016429         1.781662         2.852300
 C        -0.800393         2.751915         2.653815
 C         0.380870         1.902538         2.165034
 H        -3.577273         3.369083         1.512545
 H        -2.131516         1.385845        -0.087105
 H        -0.783554         2.554358        -0.371189
 H         0.593487        -0.578739         0.922524
 H        -2.553471         0.070697         1.707334
 H        -1.254057        -0.288846         2.982249
 H        -2.844405         2.014163         3.544904
 H        -0.805523         3.685712         3.193074
 H         1.052714         2.434599         1.569416
 H         0.946419         1.309600         2.876218
