19
Iteration:  1391charge 0 multiplicity 1
 O        -2.868453         3.820836         1.470046
 C        -1.836557         2.838154         1.679748
 C        -1.279296         2.035192         0.521459
 C        -0.550634         0.889428         1.296181
 O         0.053961        -0.085226         0.439360
 C        -1.622077         0.372909         2.336927
 C        -2.034914         1.849546         2.788187
 C        -0.746456         2.735322         2.769444
 C         0.339964         1.830014         2.199672
 H        -2.756759         4.072555         0.543491
 H        -2.074462         1.752349        -0.294824
 H        -0.629272         2.618834        -0.166293
 H        -0.372747        -0.030055        -0.479330
 H        -2.316204        -0.322364         1.892122
 H        -1.075099        -0.056663         3.195584
 H        -2.622218         2.147238         3.641737
 H        -0.639004         3.451712         3.559054
 H         1.230980         2.351902         1.711732
 H         0.717250         1.035944         2.864647
