19
Iteration:  4224charge 0 multiplicity 1
 O        -2.903820         3.752323         1.412532
 C        -1.889805         2.791036         1.615595
 C        -1.452269         1.905498         0.429417
 C        -0.642789         0.919932         1.289146
 O         0.016736        -0.148757         0.574958
 C        -1.529805         0.471972         2.521577
 C        -1.795003         1.895108         2.936490
 C        -0.684884         2.836626         2.615442
 C         0.350920         1.843758         1.976133
 H        -2.973041         4.259461         2.269919
 H        -2.280533         1.391370        -0.082479
 H        -0.858322         2.607823        -0.218685
 H        -0.006179         0.008948        -0.333131
 H        -2.495872         0.103249         2.130180
 H        -0.897223        -0.222904         3.190739
 H        -2.514069         2.275670         3.668930
 H        -0.291296         3.632901         3.253752
 H         0.837940         2.351483         1.174058
 H         1.064582         1.358559         2.651551
