19
Iteration:  4102
 O        -2.847916         3.699314         1.400509
 C        -1.803075         2.790689         1.649064
 C        -1.543926         1.930485         0.506376
 C        -0.602288         0.940719         1.256791
 O         0.027735        -0.076258         0.496063
 C        -1.625026         0.527738         2.415183
 C        -1.942330         1.935195         2.879562
 C        -0.563436         2.763868         2.635958
 C         0.366427         1.833933         2.025458
 H        -3.400670         3.774260         2.223047
 H        -2.416158         1.406981         0.071786
 H        -1.034449         2.629703        -0.243731
 H         0.927030        -0.253366         0.909391
 H        -2.557315         0.003983         1.965642
 H        -1.226469        -0.233095         3.225887
 H        -2.646456         2.145900         3.690716
 H        -0.367957         3.701340         3.151627
 H         1.196089         2.394006         1.570418
 H         0.884716         1.188049         2.766828
