19
Iteration:  3400charge 0 multiplicity 1
 O        -2.776108         3.770438         1.521223
 C        -1.884597         2.709067         1.637366
 C        -1.384116         1.936701         0.493547
 C        -0.631457         0.929787         1.253592
 O         0.100009         0.026449         0.433313
 C        -1.658130         0.378800         2.386105
 C        -2.000853         1.850514         2.859163
 C        -0.773221         2.775113         2.650591
 C         0.318194         1.820310         2.167952
 H        -2.317866         4.320840         0.859497
 H        -2.137570         1.323991         0.000955
 H        -0.675235         2.470248        -0.071885
 H         0.976198         0.415453         0.270764
 H        -2.572166        -0.128046         2.080272
 H        -1.062603        -0.087806         3.112478
 H        -2.879055         2.142676         3.411243
 H        -0.587808         3.664752         3.215990
 H         1.101957         2.390958         1.570018
 H         0.806566         1.326378         3.009822
