19
Iteration:  4049
 O        -2.664405         3.802115         1.553940
 C        -1.951799         2.701948         1.634543
 C        -1.503786         1.863169         0.439967
 C        -0.530939         0.959155         1.317300
 O        -0.050944        -0.138072         0.498048
 C        -1.524882         0.482624         2.360858
 C        -2.044825         1.797422         2.869723
 C        -0.807647         2.802354         2.660385
 C         0.386435         2.042905         2.012361
 H        -2.124317         4.333493         0.901873
 H        -2.243610         1.138749         0.078471
 H        -1.028501         2.496430        -0.373248
 H         0.849133        -0.431758         0.831218
 H        -2.277934        -0.285927         2.067011
 H        -0.821750        -0.087990         3.070243
 H        -2.777775         1.781712         3.691850
 H        -0.956370         3.642062         3.343192
 H         1.013621         2.672164         1.345416
 H         1.205181         1.718706         2.781541
