19
Iteration:  3699charge 0 multiplicity 1
 O        -2.861588         3.827628         1.536089
 C        -2.054083         2.715745         1.684870
 C        -1.371461         1.966853         0.471458
 C        -0.560828         0.870533         1.312537
 O         0.107628        -0.134774         0.547715
 C        -1.630049         0.499105         2.402594
 C        -2.009736         1.871122         2.771400
 C        -0.718185         2.804614         2.537154
 C         0.397091         1.783930         2.021055
 H        -2.373435         4.537024         1.954701
 H        -2.074446         1.541006        -0.194827
 H        -0.528570         2.573293         0.172329
 H         0.859112         0.392485         0.061753
 H        -2.436205        -0.032887         1.863680
 H        -1.112119        -0.100192         3.249310
 H        -2.583969         1.905516         3.740023
 H        -0.730927         3.672509         3.229207
 H         1.227146         2.151951         1.389315
 H         0.844192         1.520165         2.887973
