19
Iteration:  2393
 O        -2.723851         3.830776         1.557115
 C        -1.910909         2.735437         1.651491
 C        -1.420707         1.959466         0.429899
 C        -0.550559         0.907675         1.333023
 O         0.041883        -0.110741         0.634630
 C        -1.587202         0.453817         2.292032
 C        -1.947622         1.826333         2.848926
 C        -0.728814         2.795788         2.588087
 C         0.308438         1.917543         2.061812
 H        -3.642646         3.408497         1.500995
 H        -2.220548         1.386630        -0.080020
 H        -1.131809         2.629070        -0.290546
 H         0.784628         0.206228         0.044083
 H        -2.472976        -0.024845         1.810007
 H        -1.186989        -0.241915         3.035720
 H        -2.745946         1.856658         3.553027
 H        -0.564281         3.818559         2.936995
 H         0.901660         2.339475         1.237005
 H         0.917636         1.348222         2.842742
