19
Iteration:  3559charge 0 multiplicity 1
 O        -2.832305         3.861065         1.392907
 C        -1.877791         2.771942         1.692372
 C        -1.407325         2.009773         0.402565
 C        -0.588708         0.915972         1.282699
 O         0.060871        -0.139305         0.467588
 C        -1.574593         0.370448         2.407571
 C        -1.955040         1.732729         2.880197
 C        -0.794544         2.804625         2.702823
 C         0.325023         1.946680         2.054019
 H        -2.780922         4.390084         2.198040
 H        -2.249363         1.633645        -0.170139
 H        -0.625784         2.675297         0.009411
 H         0.764558        -0.573347         0.982807
 H        -2.347877        -0.013564         1.799642
 H        -1.174610        -0.335244         3.119030
 H        -2.692025         1.796107         3.662760
 H        -0.502482         3.586239         3.373248
 H         1.054936         2.615029         1.445752
 H         1.036687         1.447958         2.842020
