19
Iteration:  3629
 O        -2.757120         3.982938         1.489130
 C        -1.962813         2.741647         1.693778
 C        -1.397870         1.900767         0.439535
 C        -0.570970         0.872427         1.276035
 O         0.075035        -0.114879         0.566287
 C        -1.526698         0.388331         2.368217
 C        -1.995213         1.747912         2.894095
 C        -0.817308         2.769976         2.673415
 C         0.315572         1.962846         2.040499
 H        -2.894774         4.053020         0.544404
 H        -2.185280         1.449980        -0.174982
 H        -0.610083         2.426264         0.037422
 H         0.379158         0.307763        -0.296717
 H        -2.415281        -0.135840         1.901302
 H        -1.130297        -0.200587         3.182846
 H        -2.520684         1.821257         3.827712
 H        -0.571648         3.505102         3.473459
 H         1.041348         2.334470         1.383184
 H         0.953331         1.343536         2.726842
