19
Iteration:   708
 O        -2.705623         3.944051         1.616711
 C        -1.905721         2.740533         1.648820
 C        -1.231172         2.058693         0.424681
 C        -0.487709         0.965916         1.190524
 O         0.246263        -0.112822         0.661040
 C        -1.739379         0.399134         2.095323
 C        -2.144981         1.710800         2.697188
 C        -0.918321         2.682046         2.747940
 C         0.259742         1.812652         2.194434
 H        -2.772098         4.262398         2.531401
 H        -2.100918         1.767171        -0.267018
 H        -0.615912         2.781925        -0.147844
 H         0.674885         0.106489        -0.122984
 H        -2.667240         0.218913         1.464285
 H        -1.471685        -0.371880         2.814563
 H        -3.050236         1.867147         3.306209
 H        -0.775129         3.333623         3.614519
 H         0.949247         2.546055         1.627761
 H         0.868565         1.146122         2.862910
