19
Iteration:  1815charge 0 multiplicity 1
 O        -2.717140         3.758897         1.325375
 C        -1.826211         2.722229         1.664489
 C        -1.356704         1.978230         0.495480
 C        -0.570557         0.929555         1.296881
 O         0.096911         0.117553         0.363802
 C        -1.659174         0.419389         2.432225
 C        -1.990553         1.847996         2.848448
 C        -0.781679         2.727911         2.717839
 C         0.271645         1.782878         2.208243
 H        -3.001915         4.242764         2.117861
 H        -2.259423         1.516889         0.020833
 H        -0.736861         2.415660        -0.280664
 H        -0.147624        -0.757851         0.408515
 H        -2.502812        -0.097656         2.130079
 H        -1.123124        -0.082139         3.232838
 H        -2.855407         1.883459         3.507966
 H        -0.489295         3.534068         3.410488
 H         0.821272         2.474527         1.600635
 H         0.857861         1.352696         2.957344
