19
Iteration:  2682
 O        -2.698176         3.889821         1.402790
 C        -1.956689         2.696809         1.655775
 C        -1.374882         1.914835         0.495197
 C        -0.540588         0.927532         1.306010
 O        -0.020453         0.004116         0.410889
 C        -1.657681         0.426032         2.269592
 C        -1.989447         1.784573         2.901388
 C        -0.727064         2.771010         2.665788
 C         0.418943         1.913636         2.273144
 H        -3.614183         3.622264         1.348627
 H        -2.158330         1.402419        -0.061622
 H        -0.853282         2.547601        -0.073168
 H         0.545675        -0.599466         0.907959
 H        -2.414320        -0.104325         1.687947
 H        -1.239724        -0.448541         2.806594
 H        -2.668478         1.983554         3.778336
 H        -0.707617         3.712103         3.214389
 H         1.175440         2.310047         1.541136
 H         1.036715         1.466527         3.131848
