19
Iteration:  3283charge 0 multiplicity 1
 O        -2.729243         3.838706         1.380397
 C        -1.867210         2.794692         1.691885
 C        -1.476935         1.940263         0.426361
 C        -0.575160         0.951098         1.216050
 O         0.074370        -0.034208         0.458923
 C        -1.622773         0.407523         2.297789
 C        -1.998342         1.806221         2.898888
 C        -0.732747         2.734938         2.766815
 C         0.306034         1.836261         2.236113
 H        -3.591155         3.750548         1.786352
 H        -2.261962         1.347736        -0.032882
 H        -0.808703         2.606810        -0.282484
 H         1.073969         0.194360         0.342642
 H        -2.446913        -0.069918         1.744330
 H        -1.021855        -0.124259         3.113911
 H        -2.684094         1.929679         3.713194
 H        -0.481860         3.667233         3.264247
 H         1.088202         2.401086         1.699023
 H         0.889232         1.172843         2.919831
