19
Iteration:  2324
 O        -2.626326         3.862384         1.415660
 C        -1.959607         2.636240         1.666980
 C        -1.498400         1.875474         0.454406
 C        -0.554943         0.986202         1.265133
 O         0.082907         0.083333         0.458412
 C        -1.616700         0.451463         2.449150
 C        -1.898836         1.759937         2.907937
 C        -0.770473         2.742600         2.675101
 C         0.307834         1.905253         2.072392
 H        -3.557266         3.680752         1.120021
 H        -2.136098         1.257176        -0.058761
 H        -1.046399         2.504145        -0.343851
 H        -0.008364        -0.905914         0.784672
 H        -2.522035        -0.173251         2.044670
 H        -1.123643        -0.096678         3.313825
 H        -2.503918         1.993589         3.814285
 H        -0.636679         3.633898         3.295243
 H         0.865301         2.611913         1.298032
 H         0.940711         1.485248         2.958438
