19
Iteration:  2347
 O        -2.651646         3.999150         1.511555
 C        -1.938938         2.787957         1.654099
 C        -1.518348         1.889946         0.522316
 C        -0.596737         0.874495         1.285989
 O         0.134774        -0.075858         0.461716
 C        -1.448677         0.377406         2.440107
 C        -2.082983         1.749500         2.876127
 C        -0.851435         2.794296         2.623263
 C         0.318193         1.893290         2.001086
 H        -3.492865         3.874857         1.017806
 H        -2.276867         1.536429        -0.116731
 H        -0.802022         2.296911        -0.174721
 H         0.612603        -0.671837         0.988853
 H        -2.182919        -0.409268         1.957015
 H        -0.788639        -0.176552         3.159918
 H        -2.771649         1.974409         3.714615
 H        -0.739176         3.707551         3.178625
 H         0.704462         2.605393         1.177969
 H         1.110144         1.493106         2.798558
