19
Iteration:  4567charge 0 multiplicity 1
 O        -2.732283         3.840253         1.553227
 C        -1.964521         2.688651         1.594532
 C        -1.489064         1.774559         0.450649
 C        -0.574444         0.939759         1.268103
 O        -0.103959        -0.162155         0.535450
 C        -1.421427         0.444354         2.438572
 C        -1.892274         1.851334         2.931357
 C        -0.809215         2.793678         2.571509
 C         0.347866         2.134344         1.908971
 H        -2.168085         4.616745         1.788118
 H        -2.218403         1.177303        -0.089474
 H        -0.871469         2.351418        -0.180739
 H         0.514529        -0.746714         1.103506
 H        -2.273506        -0.168067         2.046463
 H        -0.904580        -0.187224         3.183006
 H        -2.545479         1.844887         3.865076
 H        -0.762799         3.643276         3.232405
 H         0.796604         2.749692         1.145368
 H         1.112108         1.746050         2.627752
