19
Iteration:  3758
 O        -2.722077         3.899975         1.351616
 C        -1.978208         2.685084         1.674785
 C        -1.454585         1.945905         0.546234
 C        -0.477975         0.916076         1.276517
 O         0.048771        -0.062401         0.467010
 C        -1.590211         0.429602         2.442414
 C        -2.072007         1.755048         2.910298
 C        -0.811233         2.689724         2.703063
 C         0.356083         1.930121         2.020161
 H        -2.345930         4.740610         1.704093
 H        -2.183080         1.314203        -0.022764
 H        -1.018497         2.482664        -0.290967
 H         1.055645        -0.087691         0.419757
 H        -2.316954        -0.217449         1.954072
 H        -1.160450        -0.123353         3.237495
 H        -2.585692         1.883099         3.829614
 H        -0.648661         3.590317         3.256433
 H         0.878563         2.624497         1.290306
 H         1.099413         1.567399         2.747118
