19
Iteration:  2446charge 0 multiplicity 1
 O        -2.689895         3.824412         1.443052
 C        -1.860898         2.741350         1.645592
 C        -1.450468         1.895830         0.509124
 C        -0.552520         0.986992         1.296496
 O         0.028360        -0.002539         0.494676
 C        -1.504356         0.427212         2.374128
 C        -1.946467         1.804258         2.822833
 C        -0.799351         2.793839         2.647136
 C         0.327702         1.930378         2.132716
 H        -3.641097         3.510888         1.553772
 H        -2.288737         1.448857         0.054697
 H        -0.847457         2.450610        -0.351840
 H        -0.542981        -0.780718         0.571975
 H        -2.332614        -0.277798         1.895924
 H        -1.086967        -0.236368         3.171323
 H        -2.830410         2.093463         3.352621
 H        -0.797255         3.504360         3.480596
 H         1.133063         2.440798         1.489521
 H         0.940921         1.149008         2.749145
