19
Iteration:    44
 O        -2.892107         3.811768         1.418009
 C        -1.844192         2.880659         1.632925
 C        -1.295788         2.024424         0.568846
 C        -0.570801         0.935067         1.293135
 O        -0.011738        -0.043356         0.480402
 C        -1.518028         0.356388         2.270182
 C        -1.929670         1.739903         2.846845
 C        -0.766823         2.756711         2.703705
 C         0.372529         1.854511         2.181332
 H        -3.698304         3.387770         1.780787
 H        -2.074346         1.676764        -0.108046
 H        -0.599885         2.586959        -0.053575
 H        -0.268859         0.260023        -0.391505
 H        -2.274472        -0.217008         1.703930
 H        -1.023488        -0.244374         3.033553
 H        -2.629120         2.045996         3.606280
 H        -0.572346         3.325195         3.586054
 H         1.124549         2.382539         1.596028
 H         0.785600         1.331490         3.016770
