19
Iteration:  2147charge 0 multiplicity 1
 O        -2.822590         3.889742         1.585032
 C        -1.907765         2.857413         1.677130
 C        -1.456780         1.994956         0.371162
 C        -0.559427         0.956408         1.209606
 O         0.209253        -0.173909         0.639751
 C        -1.555607         0.418476         2.293689
 C        -2.026021         1.820452         2.748925
 C        -0.708062         2.759435         2.723265
 C         0.387574         1.878800         2.028456
 H        -3.733398         3.528115         1.552044
 H        -2.361759         1.574124         0.057704
 H        -1.119050         2.697255        -0.421447
 H        -0.501320        -0.936842         0.583611
 H        -2.368573        -0.189228         1.821842
 H        -1.151809        -0.233138         3.109545
 H        -2.883424         1.925912         3.432349
 H        -0.709803         3.503723         3.497349
 H         1.180979         2.460273         1.458484
 H         1.062977         1.392050         2.797719
