19
Iteration:   257charge 0 multiplicity 1
 O        -2.479222         3.959079         1.526567
 C        -1.880414         2.703431         1.650048
 C        -1.477174         1.922716         0.507757
 C        -0.579616         0.956141         1.214477
 O         0.182231         0.062116         0.359463
 C        -1.613157         0.371043         2.277429
 C        -2.139376         1.733066         2.749950
 C        -0.925579         2.632609         2.894700
 C         0.223821         1.896377         2.219301
 H        -3.071695         3.861741         0.749201
 H        -2.271863         1.443777        -0.011980
 H        -0.994358         2.491649        -0.305919
 H         1.020398        -0.129118         0.733923
 H        -2.230465        -0.379776         1.818748
 H        -1.123275        -0.114182         3.149676
 H        -3.073290         1.985781         3.307621
 H        -0.847099         3.335584         3.748547
 H         0.802161         2.673585         1.722135
 H         0.920299         1.313292         2.855945
