19
Iteration:  2118charge 0 multiplicity 1
 O        -2.717456         3.871661         1.655710
 C        -1.951861         2.711191         1.666446
 C        -1.378149         1.939217         0.366537
 C        -0.643589         0.899178         1.235848
 O         0.248261        -0.021801         0.698491
 C        -1.626593         0.398538         2.287688
 C        -1.970879         1.861407         2.824500
 C        -0.757672         2.774269         2.578762
 C         0.327254         1.864676         1.987080
 H        -3.700358         3.660462         1.644459
 H        -2.357650         1.600893        -0.278472
 H        -0.809640         2.740641        -0.242566
 H        -0.285465        -0.766566         0.369248
 H        -2.553759         0.189733         1.698894
 H        -1.384141        -0.380984         3.007028
 H        -2.723091         1.877969         3.577452
 H        -0.657365         3.712899         3.122946
 H         0.929994         2.439286         1.321959
 H         0.758373         1.350111         2.869581
