19
Iteration:   908charge 0 multiplicity 1
 O        -2.657714         3.815820         1.306960
 C        -1.846811         2.792712         1.634823
 C        -1.343486         2.021177         0.495093
 C        -0.572111         1.000732         1.344835
 O         0.035931         0.023021         0.416790
 C        -1.608310         0.401256         2.309790
 C        -2.120643         1.730632         2.762281
 C        -0.835373         2.613941         2.833328
 C         0.301549         1.816356         2.310069
 H        -2.624919         4.613869         1.912592
 H        -2.079012         1.392106        -0.007864
 H        -0.759414         2.666405        -0.162168
 H         0.536754         0.629803        -0.236469
 H        -2.346628        -0.219392         1.760302
 H        -1.114593        -0.378556         2.972569
 H        -2.849250         1.800100         3.555890
 H        -0.760466         3.358561         3.640208
 H         1.105681         2.450734         1.779046
 H         0.813198         1.139728         3.025849
