19
Iteration:  2478charge 0 multiplicity 1
 O        -2.668023         3.994555         1.543717
 C        -1.994490         2.714564         1.663104
 C        -1.462897         1.869404         0.477134
 C        -0.522037         0.899889         1.255856
 O         0.145048        -0.115046         0.460661
 C        -1.573000         0.447757         2.384492
 C        -1.998843         1.813782         2.910798
 C        -0.849111         2.726902         2.623674
 C         0.322570         1.911405         2.026880
 H        -3.446189         4.017355         1.011760
 H        -2.196924         1.292908        -0.054958
 H        -0.892191         2.702749        -0.141868
 H         0.715683        -0.481591         1.160951
 H        -2.380619        -0.146131         1.816614
 H        -1.113114        -0.144433         3.203260
 H        -2.805007         2.021264         3.576885
 H        -0.830497         3.550463         3.357297
 H         0.913950         2.588945         1.332441
 H         1.014912         1.324108         2.673219
