19
Iteration:  2177charge 0 multiplicity 1
 O        -2.688041         3.877943         1.457121
 C        -1.963102         2.719097         1.656278
 C        -1.333055         1.878110         0.428287
 C        -0.555927         0.946479         1.284949
 O         0.071690         0.020112         0.428232
 C        -1.562080         0.377537         2.447838
 C        -1.969447         1.793711         2.921978
 C        -0.827805         2.778919         2.683064
 C         0.348363         1.917793         2.112695
 H        -3.613445         3.745944         1.264690
 H        -2.042251         1.332635        -0.178024
 H        -0.800597         2.523019        -0.222957
 H        -0.639252        -0.548787         0.150746
 H        -2.354906        -0.176318         1.962428
 H        -0.959868        -0.275977         3.158019
 H        -2.757549         1.959059         3.730517
 H        -0.859307         3.647129         3.353689
 H         1.022902         2.430209         1.355056
 H         0.907421         1.461376         2.949160
