19
Iteration:  2647charge 0 multiplicity 1
 O        -2.649037         3.939022         1.539960
 C        -1.826687         2.741465         1.681959
 C        -1.455915         1.994226         0.391308
 C        -0.624889         0.942855         1.214645
 O         0.138982        -0.092173         0.485350
 C        -1.548873         0.353890         2.410924
 C        -2.145933         1.821114         2.759467
 C        -0.807410         2.670809         2.747186
 C         0.335617         1.932134         2.097896
 H        -3.337678         3.659928         0.939215
 H        -2.271194         1.644081        -0.247527
 H        -0.897237         2.607891        -0.214604
 H         0.116327        -0.879107         1.013720
 H        -2.316241        -0.444549         2.286517
 H        -0.767746         0.246216         3.121517
 H        -2.916959         1.880317         3.501566
 H        -0.704753         3.565742         3.424567
 H         0.764661         2.542978         1.364697
 H         1.061420         1.553180         2.873066
