19
Iteration:  3687
 O        -2.908666         3.807041         1.528759
 C        -1.904019         2.764885         1.585555
 C        -1.335285         1.966034         0.487955
 C        -0.557845         0.872715         1.332450
 O         0.079295        -0.109751         0.533642
 C        -1.624749         0.434329         2.375947
 C        -1.951333         1.833345         2.851378
 C        -0.778446         2.798746         2.568895
 C         0.382852         1.833616         2.115865
 H        -2.398262         4.662274         1.642741
 H        -2.024470         1.587477        -0.224450
 H        -0.796375         2.602168        -0.188959
 H         0.484665         0.311841        -0.270489
 H        -2.573872        -0.068767         2.067957
 H        -1.298258        -0.187574         3.286054
 H        -2.659248         2.063389         3.688052
 H        -0.486234         3.654929         3.178897
 H         0.972561         2.263664         1.330252
 H         0.941178         1.299120         2.789246
