19
Iteration:  3668
 O        -2.823203         3.726652         1.503926
 C        -1.830585         2.821138         1.661070
 C        -1.431503         1.868587         0.410839
 C        -0.591681         0.991032         1.255721
 O         0.014902        -0.123644         0.559411
 C        -1.539307         0.485550         2.322675
 C        -1.968834         1.852295         2.814148
 C        -0.730017         2.751485         2.809766
 C         0.336844         1.909036         2.108351
 H        -2.411456         4.429879         0.924985
 H        -2.367840         1.519561        -0.082633
 H        -0.825927         2.310463        -0.502711
 H         0.121928         0.060909        -0.350260
 H        -2.311299        -0.097261         1.849356
 H        -1.000882        -0.253226         2.984840
 H        -2.816711         2.032550         3.541791
 H        -0.641696         3.585706         3.543607
 H         1.126518         2.601846         1.606941
 H         0.790811         1.403964         2.999639
