19
Iteration:  1005charge 0 multiplicity 1
 O        -2.738863         3.907210         1.546381
 C        -1.919146         2.749714         1.731926
 C        -1.295786         2.092347         0.465949
 C        -0.584406         0.855219         1.273720
 O         0.153111        -0.224696         0.455194
 C        -1.649731         0.354047         2.226298
 C        -2.087176         1.812387         2.776239
 C        -0.786832         2.817577         2.762789
 C         0.370765         1.910991         2.228352
 H        -3.365705         3.607844         0.812164
 H        -1.895906         1.709584        -0.374553
 H        -0.596307         2.803014         0.155343
 H        -0.000372         0.087263        -0.503446
 H        -2.555265        -0.114603         1.814409
 H        -1.369031        -0.378042         3.010819
 H        -2.942841         2.066412         3.458079
 H        -0.719083         3.744335         3.360256
 H         1.189247         2.334603         1.629179
 H         0.736324         1.506743         3.148170
