19
Iteration:  1040charge 0 multiplicity 1
 O        -2.549035         3.881353         1.353901
 C        -1.866533         2.706946         1.685138
 C        -1.456029         1.944633         0.449163
 C        -0.592812         1.060672         1.293474
 O         0.013637         0.058330         0.521334
 C        -1.580048         0.370592         2.295045
 C        -2.086700         1.759397         2.762663
 C        -0.816419         2.600751         2.858858
 C         0.352502         1.839893         2.246212
 H        -3.498854         3.636506         1.125347
 H        -2.313898         1.564038        -0.070451
 H        -0.941166         2.591078        -0.186283
 H         0.357647         0.612952        -0.258683
 H        -2.242913        -0.312789         1.768848
 H        -0.941015        -0.087373         3.109201
 H        -2.906672         1.884289         3.481761
 H        -0.667358         3.470775         3.480539
 H         1.098678         2.398844         1.594529
 H         0.854171         1.213521         2.978208
