19
Iteration:   514
 O        -2.610274         3.992250         1.268692
 C        -1.893967         2.756149         1.724213
 C        -1.362241         2.063334         0.480017
 C        -0.517744         1.016858         1.268053
 O         0.104500         0.108031         0.489462
 C        -1.604348         0.255957         2.179585
 C        -2.114874         1.649214         2.821280
 C        -0.909606         2.536768         2.842059
 C         0.289224         1.781406         2.336014
 H        -3.164576         4.475443         1.880128
 H        -2.093942         1.669218        -0.245067
 H        -0.796725         2.800421        -0.050333
 H         0.687936         0.606294        -0.029610
 H        -2.440969        -0.176285         1.612007
 H        -1.342998        -0.467288         2.953668
 H        -2.729878         1.723017         3.723791
 H        -0.803679         3.306085         3.622522
 H         1.134511         2.156262         1.730241
 H         0.683258         0.989083         2.961222
