19
Iteration:  4675charge 0 multiplicity 1
 O        -2.858669         3.739206         1.491348
 C        -1.836051         2.771492         1.614344
 C        -1.482210         1.972689         0.378042
 C        -0.689450         0.964059         1.201232
 O        -0.097491        -0.184439         0.580712
 C        -1.337984         0.444299         2.499326
 C        -1.927296         1.847754         2.861311
 C        -0.701192         2.757999         2.620246
 C         0.379292         2.001883         1.962782
 H        -2.788853         4.423129         2.199438
 H        -2.495376         1.760921        -0.060751
 H        -0.815821         2.461127        -0.360350
 H         0.473449        -0.615986         1.229634
 H        -2.011528        -0.322379         2.212969
 H        -0.599148         0.099177         3.247941
 H        -2.777055         2.083947         3.477811
 H        -0.873721         3.610947         3.226501
 H         1.057808         2.611627         1.405083
 H         0.931860         1.281800         2.721655
