19
Iteration:  4800charge 0 multiplicity 1
 O        -2.919645         3.690119         1.663819
 C        -1.887965         2.708750         1.617383
 C        -1.381306         1.929623         0.404099
 C        -0.601203         0.956242         1.286786
 O        -0.055337        -0.167264         0.572142
 C        -1.613630         0.549590         2.397821
 C        -1.917812         1.867258         2.842757
 C        -0.655776         2.795836         2.597726
 C         0.464822         2.003443         1.974886
 H        -2.934302         4.102622         0.803299
 H        -2.156428         1.377169        -0.089184
 H        -0.797601         2.500320        -0.309263
 H         0.747343        -0.457623         0.931731
 H        -2.483119        -0.034341         1.907072
 H        -1.237630        -0.120525         3.135241
 H        -2.667512         2.072655         3.645522
 H        -0.411608         3.588072         3.280407
 H         0.963932         2.617979         1.088490
 H         1.353230         1.651953         2.493551
