19
Iteration:  2202charge 0 multiplicity 1
 O        -2.613141         3.843822         1.411033
 C        -1.921289         2.752521         1.722099
 C        -1.543705         1.879550         0.504466
 C        -0.610977         0.905188         1.264538
 O         0.212782         0.051591         0.453549
 C        -1.544732         0.443133         2.451360
 C        -2.026203         1.849028         2.917951
 C        -0.814350         2.687349         2.660776
 C         0.297881         1.840736         2.090254
 H        -3.423830         3.658439         0.961194
 H        -2.337298         1.522239        -0.066195
 H        -0.997087         2.585059        -0.204100
 H        -0.369385        -0.096126        -0.369590
 H        -2.340866        -0.268958         2.087991
 H        -0.831273         0.057218         3.230803
 H        -2.687439         1.931252         3.744446
 H        -0.697165         3.613946         3.200791
 H         0.958962         2.513175         1.377853
 H         0.778665         1.269101         2.979984
