19
Iteration:  3579charge 0 multiplicity 1
 O        -2.765267         3.922446         1.469503
 C        -1.921796         2.794020         1.632568
 C        -1.497243         1.903483         0.489081
 C        -0.525999         0.992244         1.242888
 O         0.062244        -0.128915         0.566473
 C        -1.545881         0.465986         2.241019
 C        -1.992562         1.819250         2.786084
 C        -0.807218         2.730854         2.670453
 C         0.379951         1.847055         2.135068
 H        -3.423088         3.829158         2.209287
 H        -2.334479         1.247884         0.270519
 H        -1.060477         2.472396        -0.427607
 H         0.932261        -0.170954         0.852678
 H        -2.332842        -0.202622         1.949345
 H        -0.895344        -0.088329         2.962091
 H        -2.616350         1.984164         3.628581
 H        -0.567528         3.429519         3.444145
 H         1.183553         2.317544         1.408004
 H         0.961549         1.255555         2.862167
