19
Iteration:  1210charge 0 multiplicity 1
 O        -2.648398         3.985246         1.695794
 C        -1.918695         2.794040         1.657377
 C        -1.425196         1.936842         0.471440
 C        -0.522532         0.907248         1.247158
 O         0.179400        -0.088620         0.688108
 C        -1.658193         0.312555         2.221467
 C        -2.063264         1.709589         2.789320
 C        -0.840844         2.744892         2.560634
 C         0.326369         1.962604         2.030665
 H        -3.406209         4.105701         1.083950
 H        -2.192040         1.476105        -0.104276
 H        -0.775134         2.519577        -0.210307
 H        -0.201312        -0.502454        -0.045706
 H        -2.291876        -0.334734         1.564197
 H        -1.268821        -0.267968         3.051597
 H        -2.814135         1.941317         3.536528
 H        -0.641901         3.569253         3.207385
 H         0.934436         2.560827         1.344675
 H         1.072702         1.576161         2.819240
