19
Iteration:  3331
 O        -2.683850         3.919149         1.550555
 C        -1.934176         2.717874         1.616830
 C        -1.365170         2.016423         0.404794
 C        -0.549259         0.933699         1.205229
 O         0.102216        -0.154885         0.584320
 C        -1.565175         0.405919         2.314014
 C        -1.989536         1.796848         2.858515
 C        -0.857136         2.703837         2.680990
 C         0.293377         1.921444         2.131302
 H        -3.651040         3.720295         1.537009
 H        -2.189671         1.476538        -0.093605
 H        -0.922844         2.730224        -0.201877
 H         0.681091         0.201865        -0.037769
 H        -2.480053        -0.068353         1.856220
 H        -0.966116        -0.208907         3.010145
 H        -2.889907         1.986727         3.469764
 H        -0.730365         3.602081         3.326740
 H         1.025107         2.492957         1.628832
 H         0.715392         1.282861         2.920946
