19
Iteration:  4252charge 0 multiplicity 1
 O        -2.792011         3.785833         1.377591
 C        -1.910829         2.753803         1.660455
 C        -1.461528         1.893991         0.497325
 C        -0.525157         1.007431         1.263854
 O        -0.257712        -0.251759         0.517206
 C        -1.358835         0.493851         2.498990
 C        -1.995960         1.825489         2.864788
 C        -0.648724         2.860360         2.625858
 C         0.440013         1.971440         2.048423
 H        -3.580412         3.607789         1.969458
 H        -2.266056         1.310444         0.001017
 H        -1.209971         2.646778        -0.252649
 H         0.514607        -0.056128        -0.041890
 H        -1.981684        -0.385552         2.149408
 H        -0.734983         0.089230         3.278676
 H        -2.584561         2.203554         3.656486
 H        -0.307541         3.604771         3.339005
 H         1.066746         2.641217         1.346884
 H         1.075433         1.510270         2.825462
