19
Iteration:  4811
 O        -2.939263         3.674523         1.594572
 C        -1.893622         2.766024         1.676063
 C        -1.457843         1.898022         0.414761
 C        -0.560501         0.937104         1.220364
 O         0.027441        -0.114968         0.555003
 C        -1.610046         0.551107         2.394260
 C        -1.852470         1.942450         2.926190
 C        -0.676476         2.751095         2.648819
 C         0.413652         1.896126         1.912066
 H        -2.768603         4.243156         0.828508
 H        -2.324450         1.497342        -0.062109
 H        -0.827534         2.373989        -0.330674
 H         0.801294        -0.284038         1.075017
 H        -2.649641         0.182426         2.089375
 H        -1.081406        -0.101464         3.046531
 H        -2.648716         2.202508         3.647087
 H        -0.620063         3.623137         3.255205
 H         1.113912         2.482908         1.168313
 H         0.908439         1.315775         2.694015
