19
Iteration:  3020
 O        -2.638739         3.927325         1.463952
 C        -1.860105         2.753681         1.664108
 C        -1.400629         1.924400         0.417441
 C        -0.623292         0.927329         1.260764
 O         0.136314         0.064423         0.506118
 C        -1.641988         0.454972         2.284085
 C        -2.034823         1.732815         2.843489
 C        -0.827565         2.659499         2.727539
 C         0.310755         1.846906         2.121484
 H        -3.464649         3.452046         1.638227
 H        -2.138114         1.433383        -0.152862
 H        -0.861051         2.581794        -0.316470
 H         0.423507        -0.578694         1.127864
 H        -2.467935        -0.117230         1.794686
 H        -1.289829        -0.137701         3.127294
 H        -2.737088         1.984139         3.634714
 H        -0.753897         3.518471         3.392798
 H         1.004005         2.389508         1.540810
 H         0.936920         1.420474         2.967511
