19
Iteration:  1217charge 0 multiplicity 1
 O        -2.690166         3.972083         1.734468
 C        -1.895621         2.759517         1.582206
 C        -1.374322         1.951989         0.393916
 C        -0.571833         0.929278         1.281275
 O         0.203814        -0.114412         0.661176
 C        -1.647953         0.361752         2.247332
 C        -2.075441         1.744750         2.775764
 C        -0.804864         2.727165         2.633064
 C         0.297588         1.965235         2.041737
 H        -3.302080         3.937062         0.942278
 H        -2.180210         1.455446        -0.156626
 H        -0.701860         2.594933        -0.183191
 H        -0.386714        -0.701547         0.092441
 H        -2.456475        -0.180646         1.676801
 H        -1.184766        -0.428316         2.876543
 H        -2.560821         1.993759         3.756390
 H        -0.719820         3.559788         3.337121
 H         0.788293         2.573595         1.269783
 H         1.039227         1.601092         2.720640
