19
Iteration:  1415charge 0 multiplicity 1
 O        -2.758098         3.773966         1.353811
 C        -1.941285         2.757107         1.723804
 C        -1.408890         2.034895         0.562655
 C        -0.546339         0.981915         1.305956
 O         0.062142        -0.004574         0.403213
 C        -1.595692         0.486709         2.299619
 C        -1.999522         1.814463         2.924384
 C        -0.773842         2.700528         2.741602
 C         0.393476         1.770911         2.227417
 H        -2.197123         4.149030         0.667230
 H        -2.111860         1.525619        -0.176433
 H        -0.923396         2.605564        -0.292247
 H        -0.570952        -0.481594        -0.046829
 H        -2.449190         0.104326         1.705116
 H        -1.084093        -0.245114         2.883718
 H        -2.865726         1.899313         3.565604
 H        -0.484948         3.522195         3.444807
 H         1.193935         2.308090         1.753509
 H         0.767846         1.145892         3.072723
