19
Iteration:   786
 O        -2.534642         3.850219         1.447484
 C        -1.859723         2.695785         1.673753
 C        -1.296055         2.053330         0.483943
 C        -0.570978         0.985969         1.266646
 O         0.085280         0.036596         0.376828
 C        -1.680671         0.364658         2.260226
 C        -2.087401         1.682377         2.821418
 C        -0.956127         2.657973         2.857145
 C         0.249637         1.870691         2.276125
 H        -3.063378         3.784616         0.601741
 H        -2.052647         1.575913        -0.193159
 H        -0.692766         2.844405        -0.035262
 H         0.726943         0.651932         0.018897
 H        -2.557337        -0.170182         1.767002
 H        -1.221199        -0.272758         3.063489
 H        -2.976533         1.997325         3.415255
 H        -0.754054         3.471416         3.555364
 H         1.264855         2.282435         1.896820
 H         0.609383         1.313486         3.160843
