19
Iteration:  4724
 O        -2.770561         3.819133         1.366874
 C        -1.883918         2.817702         1.690758
 C        -1.635255         1.716455         0.600535
 C        -0.601606         0.844734         1.345932
 O         0.150015         0.086963         0.403345
 C        -1.639890         0.324014         2.473800
 C        -1.869370         1.850959         2.942964
 C        -0.664681         2.864522         2.563914
 C         0.306677         1.935924         1.976086
 H        -2.343611         4.651959         1.669070
 H        -2.528745         1.164001         0.354773
 H        -1.116555         2.128823        -0.269802
 H         0.408582        -0.871179         0.624235
 H        -2.661861        -0.026162         2.066861
 H        -1.234795        -0.264411         3.286590
 H        -2.412675         2.071626         3.943490
 H        -0.450444         3.676521         3.306911
 H         0.722541         2.389612         1.008805
 H         1.076690         1.733059         2.658111
