19
Iteration:  3651charge 0 multiplicity 1
 C         0.109381         0.199359         0.507894
 C         1.438443        -0.265748        -0.192781
 C         2.012247        -1.675922        -0.199713
 C         3.291862        -1.152304         0.545587
 O         3.879814        -1.803610         1.672561
 C         3.756611         0.158257        -0.220700
 C         3.222741         0.509106        -1.577314
 O         1.820883         0.437923        -1.408620
 C         2.602050         0.180644         0.765723
 H         0.285329        -0.342657         1.487986
 H        -0.065968         1.273906         0.430322
 H        -0.833998        -0.245972         0.087116
 H         1.541537        -2.318880         0.597462
 H         2.035668        -2.201646        -1.115696
 H         4.231219        -2.670052         1.401368
 H         4.709549         0.545578         0.111993
 H         3.571793         1.492717        -1.755713
 H         3.502908         0.028718        -2.434765
 H         2.744224         0.602656         1.787739
