19
Iteration:  1261charge 0 multiplicity 1
 C         0.127197         0.225919         0.463718
 C         1.438445        -0.188421        -0.159526
 C         1.970706        -1.753061        -0.126285
 C         3.168101        -1.156440         0.604927
 O         4.014884        -1.725895         1.546641
 C         3.724452         0.061787        -0.169587
 C         3.237101         0.485394        -1.526016
 O         1.857881         0.313344        -1.460669
 C         2.594210         0.249922         0.708192
 H         0.124622        -0.395794         1.391564
 H         0.264414         1.258763         0.847895
 H        -0.833401        -0.129251        -0.032392
 H         1.338637        -2.460912         0.416326
 H         2.211407        -2.132032        -1.127719
 H         3.575889        -1.635458         2.397608
 H         4.696803         0.516968         0.178218
 H         3.343167         1.496914        -1.869982
 H         3.755708        -0.255994        -2.302441
 H         2.576675         0.982177         1.536961
