19
Iteration:  1167charge 0 multiplicity 1
 C        -0.088591         0.080289         0.116271
 C         1.436093        -0.126427        -0.074033
 C         1.878857        -1.569674         0.046541
 C         3.218707        -1.018384         0.715274
 O         4.255995        -1.891527         1.241207
 C         3.780217         0.106879        -0.095527
 C         3.253875         0.203735        -1.517959
 O         1.835846         0.503835        -1.335240
 C         2.559562         0.355997         0.940538
 H        -0.241949         0.136962         1.255339
 H        -0.280795         1.056763        -0.399738
 H        -0.620092        -0.793041        -0.367246
 H         1.274569        -2.020170         0.934364
 H         1.895304        -2.299504        -0.884511
 H         3.945808        -2.334558         2.060411
 H         4.715669         0.536659         0.250805
 H         3.683247         1.056091        -2.201965
 H         3.322588        -0.770465        -2.168769
 H         2.521419         1.003280         1.814632
