19
Iteration:  1610
 C        -0.026211         0.158804         0.172948
 C         1.485299        -0.092191        -0.120794
 C         2.023366        -1.653944         0.003745
 C         3.255884        -1.144907         0.643445
 O         4.146532        -1.779272         1.457864
 C         3.732790         0.005379        -0.180898
 C         3.145912         0.216442        -1.563327
 O         1.762406         0.520000        -1.307673
 C         2.656893         0.327580         0.823735
 H        -0.280241        -0.170879         1.174862
 H        -0.132032         1.255422         0.145962
 H        -0.515474        -0.615561        -0.473362
 H         1.281604        -1.954183         0.698996
 H         1.999203        -2.332702        -0.853272
 H         3.675074        -1.900256         2.316145
 H         4.691838         0.559699         0.122600
 H         3.770722         0.950152        -2.107857
 H         3.065949        -0.733109        -2.088816
 H         2.759614         1.039924         1.678856
