19
Iteration:  4161
 C        -0.009827        -0.010418         0.228318
 C         1.479789        -0.034662        -0.034408
 C         1.956136        -1.590488         0.037580
 C         3.187121        -1.063099         0.604795
 O         3.983486        -1.826267         1.432939
 C         3.781424         0.090035        -0.186876
 C         3.213729         0.175673        -1.564318
 O         1.873929         0.619861        -1.311882
 C         2.701937         0.332978         0.868297
 H        -0.258010        -0.563570         1.142233
 H        -0.436930         0.940482         0.243286
 H        -0.609623        -0.510284        -0.484594
 H         1.335830        -2.153782         0.766726
 H         1.865603        -2.380507        -0.857413
 H         4.227079        -2.637632         0.951702
 H         4.835977         0.248178         0.052977
 H         3.760558         0.983916        -2.260291
 H         3.260984        -0.762128        -2.259962
 H         2.719148         1.107366         1.702128
