19
Iteration:  1343
 C        -0.049678         0.190128         0.033500
 C         1.421263        -0.085995        -0.091107
 C         1.868305        -1.568424         0.111509
 C         3.272468        -1.069004         0.676782
 O         4.279324        -1.885210         1.229126
 C         3.770539         0.137952        -0.008542
 C         3.220027         0.133505        -1.494115
 O         1.781292         0.419896        -1.351537
 C         2.589220         0.388578         0.993771
 H        -0.199571        -0.087405         1.109025
 H        -0.453873         1.167187        -0.266883
 H        -0.553221        -0.491064        -0.675113
 H         1.358384        -2.062991         0.915758
 H         1.844520        -2.219794        -0.738236
 H         3.829001        -2.581541         1.741890
 H         4.794616         0.487618         0.262796
 H         3.431076         0.935304        -2.247822
 H         3.442303        -0.849523        -1.954953
 H         2.581578         1.382374         1.516608
