19
Iteration:   815charge 0 multiplicity 1
 C         0.121500         0.159091         0.429229
 C         1.465658        -0.199094        -0.132042
 C         1.928437        -1.669595        -0.020741
 C         3.182416        -1.073901         0.553934
 O         4.044557        -1.752049         1.443496
 C         3.793070         0.112750        -0.096523
 C         3.237599         0.434854        -1.551849
 O         1.858553         0.240585        -1.506610
 C         2.538643         0.346470         0.830532
 H         0.084564        -0.057054         1.521375
 H        -0.098018         1.216588         0.133018
 H        -0.902289        -0.293759         0.003242
 H         1.508391        -2.333366         0.699019
 H         1.950102        -2.154966        -1.010107
 H         3.560626        -2.481724         1.899858
 H         4.797181         0.313129         0.314668
 H         3.445601         1.557845        -1.712407
 H         3.765664        -0.130694        -2.373119
 H         2.375700         0.969343         1.739813
