19
Iteration:  1377
 C         0.013387         0.329434         0.195612
 C         1.398281        -0.123272        -0.151961
 C         1.934197        -1.702434         0.098847
 C         3.233034        -1.079614         0.669615
 O         4.150356        -1.782093         1.294694
 C         3.748963         0.107380        -0.104071
 C         3.290905         0.342212        -1.521742
 O         1.810707         0.226253        -1.434971
 C         2.565161         0.256607         0.927662
 H        -0.278399        -0.133622         1.119735
 H        -0.023463         1.393456         0.483203
 H        -0.834616         0.069575        -0.378107
 H         1.405559        -2.215292         0.877727
 H         2.042279        -2.368965        -0.733398
 H         3.783222        -2.184705         2.087977
 H         4.818793         0.328337         0.226063
 H         3.495197         1.420872        -1.808142
 H         3.637536        -0.315214        -2.333951
 H         2.515239         1.080097         1.690529
