19
Iteration:  3640charge 0 multiplicity 1
 C         0.123982         0.090916         0.492091
 C         1.487663        -0.148992        -0.131500
 C         2.024476        -1.689741        -0.184660
 C         3.272446        -1.169182         0.527409
 O         3.858048        -1.780656         1.685578
 C         3.811664         0.120121        -0.199209
 C         3.186482         0.496449        -1.572409
 O         1.760596         0.485412        -1.467925
 C         2.669456         0.147090         0.775434
 H         0.000481        -0.269014         1.559449
 H         0.177386         1.163558         0.720717
 H        -0.773323        -0.217440        -0.114264
 H         1.436273        -2.447060         0.355962
 H         2.154263        -2.009457        -1.183105
 H         4.046869        -2.728980         1.536765
 H         4.704026         0.621116         0.084936
 H         3.443007         1.488892        -1.849660
 H         3.518236        -0.234905        -2.243957
 H         2.615496         0.951296         1.530786
