19
Iteration:  1481charge 0 multiplicity 1
 C        -0.068528         0.175337         0.167826
 C         1.448929        -0.082491        -0.068982
 C         1.953034        -1.630851         0.038264
 C         3.238212        -1.028298         0.654626
 O         4.198545        -1.875924         1.356258
 C         3.725786         0.108038        -0.107902
 C         3.209569         0.104510        -1.514845
 O         1.792433         0.526301        -1.384903
 C         2.678083         0.373200         0.904449
 H        -0.029742        -0.204319         1.168713
 H        -0.433300         1.133761        -0.203179
 H        -0.670036        -0.448971        -0.579473
 H         1.340387        -2.344474         0.755776
 H         2.144583        -2.179349        -0.982883
 H         3.681010        -2.153214         2.136957
 H         4.776950         0.481186        -0.027570
 H         3.602482         0.765844        -2.302283
 H         3.375501        -0.928947        -1.791152
 H         2.284873         1.000778         1.767665
