19
Iteration:  4262
 C         0.045994         0.282335         0.331613
 C         1.419053        -0.162238        -0.165131
 C         1.892785        -1.624251         0.056949
 C         3.256358        -1.149194         0.588437
 O         3.994712        -1.911714         1.491642
 C         3.827335         0.158376        -0.128455
 C         3.270794         0.513690        -1.575609
 O         1.805130         0.269132        -1.470869
 C         2.625288         0.163131         0.844614
 H        -0.245065         0.137949         1.381726
 H        -0.152594         1.288382         0.009505
 H        -0.800639        -0.201295        -0.153372
 H         1.333119        -1.965771         1.031980
 H         1.776885        -2.396822        -0.810197
 H         4.945156        -1.761809         1.291382
 H         4.865526         0.526371         0.117745
 H         3.271708         1.662776        -1.631813
 H         3.699606        -0.153717        -2.400643
 H         2.595533         0.701252         1.763885
