19
Iteration:  2130
 C         0.147487         0.109404         0.285851
 C         1.542560        -0.087850        -0.091779
 C         1.928499        -1.628940        -0.040615
 C         3.206823        -1.090985         0.649988
 O         3.973393        -1.844564         1.546209
 C         3.754168         0.135554        -0.192942
 C         3.179746         0.378207        -1.533015
 O         1.743413         0.423670        -1.410072
 C         2.679020         0.244497         0.836156
 H         0.089428        -0.292155         1.279612
 H        -0.036729         1.168981         0.176524
 H        -0.510698        -0.507285        -0.399419
 H         1.302133        -2.132346         0.688922
 H         1.964375        -2.165613        -1.058872
 H         4.466494        -2.535547         1.054682
 H         4.805008         0.325252         0.038256
 H         3.413853         1.316905        -1.958873
 H         3.385006        -0.493293        -2.217554
 H         2.528505         1.086776         1.627741
