19
Iteration:  4079
 C         0.078892         0.346404         0.322729
 C         1.439561        -0.144269        -0.148238
 C         1.882514        -1.672209         0.046236
 C         3.196453        -1.165993         0.545672
 O         4.078070        -1.873599         1.485163
 C         3.723304         0.181387        -0.102646
 C         3.177282         0.570167        -1.510076
 O         1.822596         0.135978        -1.543315
 C         2.648590         0.198119         0.891197
 H        -0.062076         0.001421         1.371532
 H         0.128564         1.489754         0.482417
 H        -0.747514         0.046605        -0.393737
 H         1.335266        -2.106307         0.926603
 H         1.855559        -2.211822        -0.893133
 H         4.877555        -2.221569         1.041917
 H         4.814998         0.391931         0.245142
 H         3.357213         1.704503        -1.672005
 H         3.763550        -0.044431        -2.179146
 H         2.641781         0.725788         1.821719
