19
Iteration:  3184charge 0 multiplicity 1
 C         0.055241         0.175952         0.208787
 C         1.448402        -0.209474        -0.072913
 C         1.930693        -1.646864         0.033648
 C         3.222472        -1.030968         0.537986
 O         4.012206        -1.850633         1.358122
 C         3.746363         0.142815        -0.090922
 C         3.245520         0.470612        -1.423270
 O         1.822759         0.290051        -1.355534
 C         2.623955         0.306056         0.861041
 H        -0.055589        -0.020481         1.313460
 H        -0.188638         1.177988        -0.084749
 H        -0.705447        -0.535710        -0.269427
 H         1.482256        -2.139354         0.828859
 H         2.009552        -2.219336        -0.863838
 H         4.407362        -2.568250         0.840047
 H         4.772276         0.276086         0.152585
 H         3.432041         1.442590        -1.758600
 H         3.712694        -0.024151        -2.253751
 H         2.639268         0.833167         1.769575
