19
Iteration:  1027charge 0 multiplicity 1
 C        -0.093950         0.174974         0.103159
 C         1.419795        -0.111277        -0.022958
 C         2.024484        -1.721271         0.023101
 C         3.274256        -0.998077         0.640885
 O         4.248346        -1.874522         1.269511
 C         3.727571         0.146635        -0.017125
 C         3.147416         0.107294        -1.516327
 O         1.830814         0.498222        -1.355910
 C         2.549483         0.403390         0.924150
 H        -0.558408        -0.536843         0.894273
 H        -0.358784         1.274477         0.318347
 H        -0.612350         0.084260        -0.866071
 H         1.442033        -2.279880         0.744824
 H         2.243831        -2.306685        -0.818653
 H         3.902360        -2.414276         2.018498
 H         4.601504         0.809564         0.253406
 H         3.698909         0.760337        -2.167455
 H         3.303478        -0.849778        -1.971947
 H         2.631340         1.216382         1.721893
