19
Iteration:   629charge 0 multiplicity 1
 C        -0.001200         0.202152         0.230372
 C         1.507669        -0.213272        -0.167350
 C         1.854553        -1.702618         0.050887
 C         3.203032        -1.217280         0.564774
 O         4.128147        -1.776949         1.526929
 C         3.795135         0.047742        -0.192635
 C         3.275387         0.624989        -1.479149
 O         1.816900         0.324832        -1.404753
 C         2.606763         0.206191         0.745863
 H        -0.008041         0.129270         1.325968
 H        -0.391993         1.134717        -0.182170
 H        -0.749796        -0.697775        -0.061786
 H         1.477241        -2.272801         0.883024
 H         1.795339        -2.191173        -0.864071
 H         3.774811        -1.720881         2.443470
 H         4.850809         0.246683         0.158342
 H         3.330801         1.680138        -1.428492
 H         3.427040         0.269582        -2.440723
 H         2.625250         1.023930         1.536154
