19
Iteration:  3953
 C         0.115863         0.180705         0.479086
 C         1.458336        -0.096054        -0.179791
 C         1.881570        -1.676523        -0.076333
 C         3.275106        -1.165432         0.518080
 O         3.893318        -1.869859         1.617232
 C         3.834278         0.104959        -0.153032
 C         3.199442         0.557031        -1.494838
 O         1.784608         0.351792        -1.504230
 C         2.658247         0.177208         0.717058
 H         0.250570        -0.397951         1.531258
 H        -0.107514         1.270644         0.349785
 H        -0.760392        -0.387314         0.039516
 H         1.402300        -2.131259         0.762156
 H         1.813237        -2.384991        -0.894647
 H         4.831092        -2.082303         1.423026
 H         4.762502         0.720369         0.149380
 H         3.439056         1.584387        -1.747543
 H         3.795484         0.005097        -2.297258
 H         2.782439         0.855215         1.514866
