19
Iteration:   360charge 0 multiplicity 1
 C         0.166016         0.123891         0.356974
 C         1.472898        -0.192063        -0.169448
 C         1.963055        -1.674935        -0.042248
 C         3.189197        -1.127140         0.670411
 O         3.937773        -1.707432         1.561990
 C         3.798388         0.147284        -0.143479
 C         3.221948         0.461805        -1.493197
 O         1.771408         0.262608        -1.537639
 C         2.622458         0.251382         0.839352
 H        -0.165410        -0.571626         1.157429
 H         0.106557         1.172650         0.803733
 H        -0.611162         0.129728        -0.533323
 H         1.264365        -2.160511         0.519733
 H         2.143368        -2.113638        -0.990418
 H         4.360381        -2.445535         1.099963
 H         4.774020         0.513499         0.127646
 H         3.392814         1.557360        -1.713723
 H         3.795895        -0.100857        -2.280955
 H         2.519345         1.000558         1.567495
