19
Iteration:   616charge 0 multiplicity 1
 C        -0.000442         0.112958         0.231173
 C         1.432241        -0.111133        -0.088190
 C         1.903372        -1.678336         0.037312
 C         3.276371        -1.167336         0.572717
 O         4.131415        -1.831298         1.471392
 C         3.754592         0.033669        -0.129732
 C         3.218114         0.524423        -1.499359
 O         1.803347         0.356844        -1.484190
 C         2.667312         0.294375         0.814319
 H        -0.278971         0.322029         1.305427
 H        -0.373964         1.022945        -0.299909
 H        -0.592302        -0.736970        -0.254562
 H         1.211589        -1.991857         0.732475
 H         1.874640        -2.415698        -0.726333
 H         3.675828        -1.686966         2.312879
 H         4.792836         0.331366         0.166879
 H         3.497051         1.548125        -1.522820
 H         3.757320         0.056717        -2.226107
 H         2.608894         0.783063         1.814130
