19
Iteration:  2960charge 0 multiplicity 1
 C        -0.057034         0.210391         0.205448
 C         1.438985        -0.127121        -0.033203
 C         1.934398        -1.658474         0.090745
 C         3.229063        -1.069381         0.631518
 O         4.167698        -1.977003         1.250831
 C         3.729734         0.150953        -0.101738
 C         3.279821         0.403652        -1.519077
 O         1.842914         0.289745        -1.357273
 C         2.563806         0.333549         0.825423
 H        -0.514917        -0.172263         1.176421
 H        -0.294416         1.374077         0.209697
 H        -0.542849        -0.024041        -0.754999
 H         1.428261        -2.301258         0.810759
 H         1.952307        -2.170831        -0.804462
 H         4.299971        -1.604034         2.147416
 H         4.559264         0.688028         0.425528
 H         3.551680         1.406044        -1.769726
 H         3.585183        -0.452602        -2.135173
 H         2.526767         1.067875         1.566022
