19
Iteration:   500
 C         0.049670         0.283384         0.280786
 C         1.492020        -0.236115        -0.155107
 C         1.957687        -1.671037        -0.004039
 C         3.252769        -1.118507         0.678207
 O         4.067940        -1.897135         1.597231
 C         3.738545         0.103957        -0.252955
 C         3.144882         0.596087        -1.524854
 O         1.796953         0.226833        -1.493635
 C         2.658597         0.246637         0.759624
 H        -0.205954        -0.334720         1.093645
 H        -0.045476         1.266599         0.643618
 H        -0.576034         0.019213        -0.590125
 H         1.428589        -2.374230         0.846742
 H         2.057800        -2.367431        -0.918751
 H         3.769998        -1.491857         2.439617
 H         4.751054         0.392201         0.063951
 H         3.211799         1.748381        -1.479861
 H         3.687781         0.371010        -2.517795
 H         2.694668         0.779338         1.739230
