19
Iteration:  3619
 C         0.160315         0.024477         0.372261
 C         1.532158        -0.126779        -0.145846
 C         2.046046        -1.603975        -0.191321
 C         3.144556        -1.065323         0.630365
 O         3.905334        -1.809054         1.624657
 C         3.801503         0.033069        -0.195946
 C         3.173122         0.369091        -1.600147
 O         1.702035         0.516559        -1.327428
 C         2.696780         0.322464         0.812010
 H        -0.164095        -0.801529         1.124391
 H        -0.023214         1.019641         0.848814
 H        -0.519743        -0.269370        -0.513208
 H         1.409489        -2.281820         0.305692
 H         2.235645        -2.028939        -1.100193
 H         4.214313        -2.664644         1.270758
 H         4.844133         0.204019        -0.036203
 H         3.625834         1.330505        -1.815058
 H         3.352678        -0.387540        -2.402413
 H         2.785098         0.886632         1.759106
