19
Iteration:   505
 C         0.052393         0.286081         0.250515
 C         1.488399        -0.213919        -0.144820
 C         1.982445        -1.695086        -0.006572
 C         3.272752        -1.108497         0.652763
 O         4.047731        -1.839876         1.570101
 C         3.765243         0.035450        -0.265585
 C         3.159867         0.592366        -1.520585
 O         1.791793         0.228720        -1.457223
 C         2.615703         0.236040         0.789922
 H        -0.308777        -0.494381         1.039559
 H        -0.086135         1.354534         0.688478
 H        -0.667815         0.095447        -0.553178
 H         1.594651        -2.138747         0.810573
 H         2.052519        -2.370944        -0.818176
 H         3.701085        -1.766833         2.501283
 H         4.746878         0.432554         0.005338
 H         3.237028         1.671215        -1.446911
 H         3.595316         0.359420        -2.451398
 H         2.804167         0.785012         1.707470
