19
Iteration:  2789charge 0 multiplicity 1
 C        -0.014755         0.321941         0.236566
 C         1.419567        -0.176106        -0.115986
 C         1.930314        -1.718009         0.122971
 C         3.217797        -1.112175         0.624493
 O         4.222586        -1.812960         1.362500
 C         3.727729        -0.002362        -0.184095
 C         3.240371         0.541365        -1.483404
 O         1.794718         0.206228        -1.442064
 C         2.575575         0.283968         0.877799
 H        -0.376793        -0.029559         1.184653
 H        -0.013126         1.426526         0.130059
 H        -0.698850         0.100488        -0.649050
 H         1.584790        -2.317614         0.991488
 H         1.882946        -2.299553        -0.911699
 H         3.804296        -2.158771         2.163666
 H         4.636368         0.264975         0.242236
 H         3.495654         1.631047        -1.671882
 H         3.657034         0.193343        -2.441527
 H         2.736916         0.972465         1.654404
