19
Iteration:  4222charge 0 multiplicity 1
 C         0.045777         0.320938         0.291017
 C         1.453095        -0.196709        -0.109297
 C         1.937108        -1.721460        -0.048123
 C         3.152121        -1.145417         0.674964
 O         4.082169        -1.724478         1.505987
 C         3.805277         0.013765        -0.160646
 C         3.205744         0.481797        -1.532415
 O         1.792134         0.314289        -1.437445
 C         2.646986         0.186046         0.828146
 H        -0.211516         0.081893         1.325384
 H         0.330883         1.415529         0.607319
 H        -0.763488         0.110065        -0.507712
 H         1.348334        -2.318322         0.631722
 H         2.151811        -2.114135        -0.974752
 H         4.359965        -2.524435         1.036719
 H         4.728311         0.212200         0.269465
 H         3.447766         1.484230        -1.733497
 H         3.453383        -0.090217        -2.440309
 H         2.352129         0.785930         1.732156
