19
Iteration:  4110charge 0 multiplicity 1
 C         0.129940         0.360133         0.294214
 C         1.436642        -0.237926        -0.116842
 C         2.012445        -1.759297        -0.027294
 C         3.240204        -1.130964         0.516651
 O         3.942420        -1.809535         1.522344
 C         3.733751         0.097304        -0.174443
 C         3.190680         0.504905        -1.502153
 O         1.769342         0.315879        -1.360674
 C         2.633275         0.141153         0.818103
 H        -0.002269         0.482065         1.486842
 H         0.180752         1.508092         0.050013
 H        -0.828067        -0.142397        -0.103814
 H         1.557220        -2.536069         0.629995
 H         2.061800        -2.257470        -0.906111
 H         4.853923        -1.913146         1.196520
 H         4.678323         0.546619         0.336032
 H         3.463970         1.427603        -1.856487
 H         3.541849        -0.082324        -2.319799
 H         2.711193         0.901545         1.568612
