19
Iteration:  4778charge 0 multiplicity 1
 C        -0.022892         0.238974         0.073519
 C         1.437834        -0.052088         0.003466
 C         1.873752        -1.544112         0.132592
 C         3.190732        -1.091568         0.686612
 O         4.230097        -1.851674         1.240051
 C         3.772001         0.054053        -0.132217
 C         3.184633         0.096244        -1.512779
 O         1.871750         0.483542        -1.347714
 C         2.614526         0.331536         0.940180
 H        -0.450859        -0.222128         0.919930
 H        -0.283958         1.289894         0.087871
 H        -0.765571        -0.219385        -0.656265
 H         1.359465        -2.083501         0.911002
 H         1.868880        -2.106068        -0.803829
 H         3.770803        -2.544871         1.733796
 H         4.770759         0.313331         0.080309
 H         3.608047         0.796230        -2.276047
 H         3.341270        -0.938298        -2.016124
 H         2.696723         0.968894         1.810873
