19
Iteration:   153charge 0 multiplicity 1
 C        -0.020740         0.122478         0.255141
 C         1.414947        -0.176514        -0.082671
 C         1.996798        -1.630555         0.040787
 C         3.228918        -1.040404         0.596987
 O         3.978404        -1.869673         1.500081
 C         3.775472         0.099569        -0.123744
 C         3.273455         0.402180        -1.562143
 O         1.837750         0.388721        -1.431439
 C         2.592399         0.270950         0.848356
 H        -0.156737        -0.231842         1.248970
 H        -0.148535         1.154463         0.140615
 H        -0.633964        -0.377358        -0.437475
 H         1.543860        -2.198046         0.859410
 H         1.879650        -2.227349        -0.911421
 H         4.896882        -1.878295         1.160982
 H         4.804217         0.510410         0.062607
 H         3.549629         1.379904        -1.864842
 H         3.589062        -0.346767        -2.325032
 H         2.616094         1.085058         1.664706
