19
Iteration:  4573charge 0 multiplicity 1
 C         0.031927         0.284820         0.345164
 C         1.474847        -0.166047        -0.103172
 C         1.902817        -1.656134        -0.110800
 C         3.250665        -1.187733         0.530162
 O         3.961278        -1.760900         1.596755
 C         3.763498         0.115947        -0.142001
 C         3.212328         0.453369        -1.548424
 O         1.812487         0.336595        -1.432722
 C         2.675007         0.151710         0.834760
 H         0.092081         0.246040         1.389489
 H         0.035030         1.333794         0.140436
 H        -0.741576        -0.295199        -0.068350
 H         1.356946        -2.319832         0.677310
 H         2.147727        -2.117187        -1.114710
 H         4.492244        -2.536858         1.352435
 H         4.788481         0.465481         0.054961
 H         3.393557         1.479212        -1.893152
 H         3.622399        -0.172567        -2.341438
 H         2.832256         0.505039         1.877620
