19
Iteration:  2516charge 0 multiplicity 1
 C         0.065606         0.152732         0.255223
 C         1.509463        -0.113643        -0.087244
 C         1.956625        -1.626610        -0.039070
 C         3.210896        -1.081321         0.568467
 O         4.151456        -1.810783         1.476436
 C         3.700712         0.113592        -0.160304
 C         3.177586         0.230580        -1.532998
 O         1.773917         0.443344        -1.370919
 C         2.621373         0.320484         0.870985
 H        -0.070239        -0.513883         1.151129
 H        -0.202812         1.242633         0.512083
 H        -0.563049        -0.092694        -0.595264
 H         1.321945        -2.300303         0.537823
 H         2.226103        -2.178726        -0.968049
 H         3.668292        -2.339758         2.125639
 H         4.693584         0.304794         0.009270
 H         3.491471         1.139438        -2.060744
 H         3.302855        -0.658582        -2.213200
 H         2.564609         1.083747         1.678162
