19
Iteration:   820charge 0 multiplicity 1
 C         0.100900         0.165650         0.378587
 C         1.497062        -0.167337        -0.078759
 C         1.931541        -1.661429        -0.028563
 C         3.186929        -1.095526         0.588965
 O         4.035872        -1.759837         1.433989
 C         3.780111         0.141018        -0.105919
 C         3.219605         0.431879        -1.581611
 O         1.836878         0.253325        -1.491767
 C         2.564474         0.314871         0.839379
 H         0.106196        -0.154727         1.451631
 H        -0.152895         1.237646         0.205058
 H        -0.672176        -0.394496        -0.155392
 H         1.411911        -2.292892         0.759506
 H         1.930574        -2.320894        -0.913687
 H         3.670418        -2.498016         1.924261
 H         4.752182         0.393812         0.329596
 H         3.558230         1.461056        -1.809507
 H         3.795619        -0.100200        -2.337651
 H         2.410886         0.974394         1.682328
