19
Iteration:  4738charge 0 multiplicity 1
 C         0.103093         0.182256         0.359157
 C         1.486039        -0.106942        -0.114405
 C         1.943765        -1.615683        -0.030173
 C         3.299621        -1.094500         0.582510
 O         3.942538        -1.884250         1.532945
 C         3.819007         0.005869        -0.196695
 C         3.154927         0.375990        -1.558067
 O         1.771524         0.408352        -1.433499
 C         2.707521         0.323969         0.779344
 H         0.120181        -0.017212         1.495633
 H        -0.155047         1.244412         0.212631
 H        -0.563304        -0.573803        -0.164511
 H         1.370590        -2.189471         0.761976
 H         2.018379        -2.089648        -1.056270
 H         3.335093        -2.210287         2.236922
 H         4.852527         0.383853         0.032362
 H         3.586531         1.304916        -1.872532
 H         3.382338        -0.329629        -2.374815
 H         2.601946         0.989725         1.637997
