19
Iteration:  3141
 C        -0.058912         0.164537         0.043118
 C         1.424481        -0.115655        -0.064516
 C         1.903105        -1.652539         0.112359
 C         3.311155        -1.171601         0.576017
 O         4.211915        -1.933072         1.372367
 C         3.736822         0.014867        -0.109713
 C         3.171784         0.392809        -1.448903
 O         1.786789         0.468930        -1.297716
 C         2.586098         0.334852         0.884878
 H        -0.530369         0.004111         1.038681
 H        -0.167278         1.204717        -0.199049
 H        -0.654681        -0.153476        -0.872409
 H         1.422063        -1.974970         1.045998
 H         1.720403        -2.362853        -0.722779
 H         5.104824        -1.680509         1.099191
 H         4.626167         0.542896         0.140134
 H         3.666754         1.328457        -1.759032
 H         3.456131        -0.280136        -2.271912
 H         2.623412         0.933575         1.759720
