19
Iteration:  3886
 C        -0.085551         0.282505         0.106573
 C         1.404167        -0.154295        -0.050783
 C         1.920569        -1.687773         0.125339
 C         3.285540        -1.121592         0.544392
 O         4.249553        -1.872352         1.334908
 C         3.659322         0.095082        -0.091281
 C         3.235708         0.308818        -1.451242
 O         1.859124         0.491059        -1.383319
 C         2.562319         0.225337         0.982273
 H        -0.578054        -0.207039         1.060936
 H        -0.133278         1.418127         0.110297
 H        -0.804683         0.103976        -0.775065
 H         1.493325        -2.043761         0.991274
 H         1.825766        -2.234663        -0.787916
 H         4.575497        -2.598893         0.771301
 H         4.718221         0.334852         0.155792
 H         3.589907         1.246776        -1.960443
 H         3.394200        -0.593591        -2.124184
 H         2.542641         1.049553         1.720010
