19
Iteration:  4193
 C         0.016743         0.145404         0.177037
 C         1.491409        -0.062503        -0.060270
 C         1.981850        -1.594569        -0.008969
 C         3.310868        -1.125773         0.613002
 O         4.043154        -1.900255         1.538707
 C         3.755099         0.144189        -0.171240
 C         3.155516         0.268206        -1.552843
 O         1.748346         0.463611        -1.373120
 C         2.714819         0.269184         0.875625
 H        -0.381611        -0.462801         0.995051
 H        -0.128342         1.153086         0.475067
 H        -0.627967         0.035122        -0.672976
 H         1.451789        -2.010810         0.843802
 H         2.023392        -2.208049        -1.032253
 H         3.943210        -2.790906         1.126845
 H         4.690434         0.597149         0.153369
 H         3.481932         1.334415        -1.952738
 H         3.217655        -0.626795        -2.216779
 H         2.694227         1.188927         1.536350
