19
Iteration:  4268charge 0 multiplicity 1
 C        -0.010099         0.275190         0.295942
 C         1.403582        -0.165732        -0.154952
 C         1.927427        -1.646111         0.052059
 C         3.239355        -1.106581         0.623841
 O         3.990530        -1.961605         1.464905
 C         3.817914         0.148941        -0.164699
 C         3.286758         0.487255        -1.533135
 O         1.791566         0.271050        -1.455333
 C         2.664032         0.225887         0.878263
 H        -0.210654         0.288121         1.385821
 H        -0.233964         1.384190         0.134677
 H        -0.697137        -0.428111        -0.271220
 H         1.380965        -1.920097         0.891458
 H         1.929363        -2.329533        -0.770588
 H         4.922537        -1.773950         1.319415
 H         4.853483         0.497200         0.000677
 H         3.344062         1.551590        -1.808891
 H         3.658059        -0.007427        -2.397628
 H         2.727113         0.895913         1.759256
