19
Iteration:  3341
 C         0.008827         0.297969         0.222992
 C         1.435637        -0.157269        -0.111281
 C         1.844511        -1.674351         0.013473
 C         3.278094        -1.213269         0.486656
 O         4.187138        -1.846084         1.461559
 C         3.709954         0.211785        -0.031032
 C         3.200579         0.546568        -1.485107
 O         1.866572         0.237483        -1.463502
 C         2.538655         0.189631         0.904111
 H        -0.178658         0.304031         1.276460
 H        -0.034522         1.368226        -0.193775
 H        -0.765474        -0.393906        -0.034263
 H         1.380079        -2.154516         0.894793
 H         1.599599        -2.281932        -0.757016
 H         4.940790        -2.284361         1.003656
 H         4.602491         0.378341         0.402633
 H         3.461148         1.552048        -1.741997
 H         3.640429        -0.225537        -2.276429
 H         2.442828         0.806558         1.821980
