19
Iteration:  4350charge 0 multiplicity 1
 C         0.070136         0.213261         0.238722
 C         1.476581        -0.119329        -0.105645
 C         1.922900        -1.631555        -0.068606
 C         3.222222        -1.138322         0.662666
 O         4.054272        -1.862255         1.483856
 C         3.747865         0.038533        -0.166974
 C         3.190153         0.261555        -1.550967
 O         1.810894         0.497198        -1.303901
 C         2.601264         0.239591         0.829518
 H        -0.124702        -0.460960         1.037144
 H         0.074101         1.234795         0.357905
 H        -0.572880         0.023047        -0.585854
 H         1.294637        -2.328829         0.590884
 H         1.864065        -2.152059        -1.076295
 H         4.807914        -1.303245         1.777344
 H         4.652737         0.524485         0.031397
 H         3.488528         1.251029        -2.081777
 H         3.310503        -0.645100        -2.197437
 H         2.726318         1.079572         1.575062
