19
Iteration:  4255
 C         0.091299         0.284399         0.335774
 C         1.487130        -0.170364        -0.122066
 C         1.838287        -1.643362         0.063429
 C         3.270447        -1.188840         0.515731
 O         4.004946        -1.849989         1.521383
 C         3.785197         0.135550        -0.106329
 C         3.216902         0.540326        -1.549710
 O         1.821003         0.273253        -1.494782
 C         2.599218         0.157188         0.789361
 H         0.038023         0.022443         1.408307
 H         0.073069         1.433378        -0.026538
 H        -0.875526        -0.139769        -0.177858
 H         1.402814        -2.136065         0.925503
 H         1.634383        -2.317554        -0.701425
 H         4.955260        -1.808851         1.272414
 H         4.667417         0.487353         0.321579
 H         3.469112         1.549840        -1.707628
 H         3.689656        -0.074024        -2.328095
 H         2.406032         0.573158         1.833977
