19
Iteration:  1511
 C         0.013091         0.228289         0.089724
 C         1.449856        -0.165386         0.002226
 C         1.880261        -1.577956         0.157236
 C         3.286295        -1.078212         0.660094
 O         4.204157        -1.814393         1.394106
 C         3.742630         0.016031        -0.153910
 C         3.206584         0.326556        -1.524518
 O         1.704540         0.331311        -1.437125
 C         2.665496         0.308448         0.858832
 H        -0.368131         0.083835         1.107349
 H         0.117054         1.318978        -0.087660
 H        -0.461585        -0.310346        -0.772632
 H         1.397374        -2.063619         0.999883
 H         1.826447        -2.225007        -0.726541
 H         3.763045        -2.650925         1.610419
 H         4.608432         0.600650         0.138752
 H         3.531781         1.416644        -1.803267
 H         3.649711        -0.333509        -2.279048
 H         2.610087         0.947332         1.789863
