19
Iteration:  3841charge 0 multiplicity 1
 C         0.005547         0.089010         0.312905
 C         1.454453        -0.060802        -0.037444
 C         2.003204        -1.568205        -0.095086
 C         3.280621        -1.152985         0.620266
 O         3.959442        -1.928741         1.503924
 C         3.728977         0.056222        -0.139043
 C         3.229402         0.363840        -1.554465
 O         1.748346         0.492990        -1.419127
 C         2.702393         0.307127         0.867126
 H        -0.065111        -0.264030         1.381953
 H        -0.432872         1.148660         0.167297
 H        -0.658398        -0.533418        -0.394471
 H         1.461637        -2.196862         0.503629
 H         2.184589        -1.929586        -1.093584
 H         4.833758        -2.195107         1.154093
 H         4.654864         0.430318         0.149798
 H         3.569632         1.322680        -1.938463
 H         3.459060        -0.494938        -2.296946
 H         2.945007         1.025802         1.690385
