19
Iteration:  1888charge 0 multiplicity 1
 C         0.067738         0.308566         0.217088
 C         1.459083        -0.106639        -0.135024
 C         1.903123        -1.671205         0.141662
 C         3.255317        -1.146930         0.649935
 O         4.150079        -1.982726         1.317502
 C         3.781259         0.177971        -0.102720
 C         3.211857         0.521016        -1.458405
 O         1.784176         0.095532        -1.478134
 C         2.537514         0.346194         0.797603
 H        -0.111410        -0.016309         1.309239
 H        -0.002396         1.433938         0.397838
 H        -0.756649        -0.066064        -0.433865
 H         1.312340        -1.892098         0.986075
 H         1.790990        -2.423170        -0.595933
 H         4.171774        -1.832111         2.267933
 H         4.760093         0.542198         0.181719
 H         3.258361         1.648326        -1.571251
 H         3.753132         0.163270        -2.297478
 H         2.429779         1.217397         1.356021
