19
Iteration:   722
 C        -0.041478        -0.000830         0.076949
 C         1.454989        -0.042143        -0.122059
 C         1.908054        -1.521835         0.045869
 C         3.225838        -1.084804         0.776047
 O         4.245084        -1.837669         1.331533
 C         3.700855         0.088480        -0.077104
 C         3.166076         0.168721        -1.556882
 O         1.808891         0.558474        -1.338997
 C         2.684195         0.302072         0.901972
 H        -0.433849        -0.836399         0.667871
 H        -0.206122         1.036356         0.353733
 H        -0.436455        -0.052972        -0.876026
 H         1.178122        -1.888776         0.884683
 H         1.821500        -2.294837        -0.851067
 H         3.926318        -2.448317         2.013346
 H         4.684755         0.570589         0.137148
 H         3.666507         1.055926        -2.038963
 H         3.174840        -0.907506        -2.053321
 H         2.728524         1.078486         1.710307
