19
Iteration:  2435charge 0 multiplicity 1
 C        -0.004164         0.252263         0.196401
 C         1.441306        -0.148506        -0.083854
 C         1.931427        -1.656030         0.126930
 C         3.182982        -1.079812         0.617670
 O         4.165217        -1.908891         1.215564
 C         3.723400         0.119720        -0.083517
 C         3.243240         0.434572        -1.468750
 O         1.845795         0.188204        -1.417002
 C         2.573602         0.378740         0.871465
 H        -0.275558         0.171924         1.300187
 H        -0.158597         1.351471         0.027602
 H        -0.806747        -0.429777        -0.241779
 H         1.571421        -2.207783         0.954026
 H         1.909533        -2.109678        -0.870027
 H         4.143485        -1.829452         2.181649
 H         4.778835         0.350504         0.371193
 H         3.459912         1.527102        -1.780709
 H         3.672940        -0.284009        -2.252881
 H         2.571164         1.117629         1.769864
