19
Iteration:   517
 C         0.032217         0.200422         0.207930
 C         1.445105        -0.149819        -0.089906
 C         2.009816        -1.712558         0.060982
 C         3.261993        -1.134396         0.553797
 O         4.052610        -1.716897         1.500489
 C         3.843516        -0.019507        -0.202672
 C         3.185221         0.535536        -1.492914
 O         1.763062         0.269823        -1.433952
 C         2.630659         0.214033         0.842353
 H        -0.464002        -0.422630         1.036425
 H         0.155279         1.255311         0.645902
 H        -0.555688         0.337595        -0.714571
 H         1.432561        -2.158381         0.779076
 H         1.985025        -2.311081        -0.793854
 H         3.360892        -2.143332         2.075136
 H         4.757586         0.423803         0.134296
 H         3.398783         1.583264        -1.476420
 H         3.482726         0.086668        -2.445100
 H         2.639687         1.039547         1.500966
