19
Iteration:  3421
 C         0.020186         0.086085         0.304808
 C         1.476518        -0.164292        -0.141553
 C         2.056791        -1.637894        -0.088289
 C         3.267519        -1.071454         0.518889
 O         3.980081        -1.790228         1.508462
 C         3.727972         0.116908        -0.143893
 C         3.241729         0.269692        -1.527191
 O         1.769602         0.560130        -1.321518
 C         2.602275         0.268041         0.860217
 H        -0.089545        -0.643404         1.175237
 H        -0.200744         1.094603         0.654865
 H        -0.661561         0.062837        -0.554548
 H         1.469792        -1.987211         0.787034
 H         2.110108        -2.270052        -0.998834
 H         4.357984        -2.642256         1.218061
 H         4.813363         0.389053         0.223114
 H         3.706444         0.985732        -2.207951
 H         3.368937        -0.740575        -2.135487
 H         2.550678         0.791830         1.819952
