19
Iteration:   354
 C         0.140481         0.173170         0.372686
 C         1.525835        -0.257311        -0.180716
 C         1.952961        -1.687527        -0.075213
 C         3.155999        -1.101649         0.673160
 O         3.933194        -1.714817         1.566177
 C         3.771594         0.139576        -0.183157
 C         3.250916         0.497078        -1.487047
 O         1.798524         0.230901        -1.496324
 C         2.613505         0.299594         0.800161
 H        -0.083358        -0.535021         1.175630
 H         0.123505         1.141171         0.847628
 H        -0.616310         0.132057        -0.318483
 H         1.198147        -2.397664         0.499972
 H         2.149243        -2.171166        -1.084621
 H         4.462471        -2.336436         1.034291
 H         4.713803         0.497065         0.299074
 H         3.369496         1.547572        -1.669810
 H         3.706312        -0.169539        -2.242201
 H         2.469237         1.027763         1.667460
