19
Iteration:   964charge 0 multiplicity 1
 C         0.057738         0.187896         0.346119
 C         1.454043        -0.234044        -0.137757
 C         1.950533        -1.649402        -0.040615
 C         3.277099        -1.156495         0.576100
 O         4.028836        -1.812253         1.573878
 C         3.791328         0.104968        -0.237670
 C         3.161769         0.642051        -1.525093
 O         1.819659         0.208415        -1.458885
 C         2.657687         0.237816         0.805757
 H        -0.000800         0.331474         1.450659
 H         0.015064         1.242727        -0.079988
 H        -0.783036        -0.443994         0.026919
 H         1.376134        -2.035192         0.807882
 H         1.964843        -2.442983        -0.801430
 H         3.298169        -2.264918         2.036796
 H         4.886454         0.375857         0.031273
 H         3.266513         1.773389        -1.524326
 H         3.592671         0.251988        -2.511926
 H         2.750906         1.018590         1.641806
