19
Iteration:  2590
 C        -0.022778         0.248059         0.214044
 C         1.467900        -0.159450        -0.079454
 C         1.907162        -1.678792         0.047878
 C         3.276013        -1.125155         0.614186
 O         4.190846        -1.804468         1.513156
 C         3.758018         0.073647        -0.173412
 C         3.175114         0.475923        -1.560556
 O         1.763093         0.293697        -1.445850
 C         2.677023         0.250213         0.854471
 H        -0.256628         0.215671         1.311467
 H        -0.055421         1.329252        -0.074941
 H        -0.732734        -0.300318        -0.370674
 H         1.317765        -2.122426         0.786658
 H         1.844610        -2.282340        -0.884341
 H         3.632245        -2.488166         1.947392
 H         4.777658         0.313650        -0.172929
 H         3.263926         1.551748        -1.677803
 H         3.501935        -0.170210        -2.346708
 H         2.731354         0.858826         1.763636
