19
Iteration:   343charge 0 multiplicity 1
 C         0.098616         0.215388         0.403227
 C         1.451912        -0.211549        -0.159209
 C         1.966448        -1.768494        -0.126820
 C         3.121120        -1.044771         0.596087
 O         3.980581        -1.782415         1.619951
 C         3.706581         0.111658        -0.099447
 C         3.271720         0.527129        -1.575298
 O         1.885009         0.211747        -1.419542
 C         2.557565         0.335846         0.720703
 H        -0.064771        -0.400918         1.290125
 H         0.256775         1.241020         0.686285
 H        -0.711550         0.105953        -0.180873
 H         1.484007        -2.552003         0.644704
 H         2.217726        -2.223656        -1.146711
 H         4.759776        -2.132394         1.179464
 H         4.752776         0.363369         0.198026
 H         3.482634         1.564263        -1.803594
 H         3.614446         0.010957        -2.492588
 H         2.403760         0.917510         1.675840
