19
Iteration:  3589
 C        -0.066971         0.059316         0.240844
 C         1.434491        -0.072034        -0.078505
 C         1.967628        -1.615536        -0.007409
 C         3.255392        -1.103514         0.581700
 O         4.089722        -1.906094         1.535099
 C         3.798542         0.100720        -0.129979
 C         3.248923         0.257680        -1.604867
 O         1.760391         0.630778        -1.344527
 C         2.625551         0.252871         0.822739
 H        -0.377572        -0.570642         1.029548
 H        -0.514462         1.039678         0.616923
 H        -0.420334        -0.070371        -0.822637
 H         1.469270        -2.071129         0.825582
 H         1.957728        -2.221825        -0.990372
 H         4.817233        -2.332289         1.047820
 H         4.771432         0.581265         0.220239
 H         3.707565         1.173453        -2.077866
 H         3.238299        -0.824928        -2.113179
 H         2.724489         0.907124         1.692859
