19
Iteration:   176charge 0 multiplicity 1
 C         0.087555         0.230208         0.325824
 C         1.461185        -0.168889        -0.169501
 C         2.022855        -1.799485        -0.047646
 C         3.203507        -1.167084         0.527149
 O         3.954356        -1.778653         1.635640
 C         3.773605         0.068860        -0.122343
 C         3.238431         0.556913        -1.503209
 O         1.759184         0.311875        -1.447100
 C         2.622291         0.233362         0.734894
 H        -0.009251        -0.204026         1.281464
 H         0.126444         1.293680         0.390830
 H        -0.628881        -0.045036        -0.330559
 H         1.343455        -2.171190         0.718600
 H         1.981382        -2.441381        -0.989483
 H         4.841934        -1.433382         1.511441
 H         4.779941         0.473042         0.104412
 H         3.383930         1.588784        -1.660882
 H         3.512758        -0.029095        -2.372308
 H         2.471584         0.731765         1.753297
