19
Iteration:  2371
 C         0.044124         0.082418         0.267140
 C         1.478285        -0.074827        -0.058529
 C         1.925348        -1.618950        -0.074811
 C         3.212585        -1.102069         0.638065
 O         4.085814        -1.731105         1.542271
 C         3.773030         0.035570        -0.195895
 C         3.160140         0.265620        -1.551305
 O         1.762606         0.517165        -1.318215
 C         2.712228         0.260047         0.772903
 H        -0.221401        -0.483321         1.214369
 H        -0.273311         1.186554         0.348310
 H        -0.393972        -0.332454        -0.653458
 H         1.480409        -2.338522         0.602822
 H         1.973735        -2.118891        -1.136655
 H         3.841824        -2.678510         1.603376
 H         4.903205         0.347822        -0.093627
 H         3.609286         1.039744        -2.117915
 H         3.296378        -0.578387        -2.222148
 H         2.681704         0.969730         1.673550
