19
Iteration:   350charge 0 multiplicity 1
 C         0.127943         0.196086         0.386905
 C         1.535370        -0.262118        -0.176142
 C         1.940410        -1.726851        -0.099193
 C         3.120614        -1.049342         0.644309
 O         3.952333        -1.742517         1.587339
 C         3.736797         0.123280        -0.152526
 C         3.264345         0.518851        -1.511502
 O         1.830084         0.213855        -1.457862
 C         2.605670         0.324629         0.762146
 H        -0.067287        -0.534555         1.205050
 H         0.200727         1.241135         0.859822
 H        -0.790000         0.087385        -0.309273
 H         1.403570        -2.403508         0.417789
 H         2.141502        -2.186882        -1.033956
 H         4.593609        -2.284804         1.088093
 H         4.658016         0.442471         0.285556
 H         3.413720         1.590029        -1.726688
 H         3.633549        -0.157893        -2.354636
 H         2.455369         0.918594         1.615736
