19
Iteration:  2591charge 0 multiplicity 1
 C        -0.027481         0.262708         0.216351
 C         1.466673        -0.164652        -0.078547
 C         1.909475        -1.684029         0.044079
 C         3.281035        -1.138068         0.611270
 O         4.187163        -1.801316         1.514874
 C         3.753651         0.073724        -0.179824
 C         3.172531         0.480584        -1.557745
 O         1.771366         0.289579        -1.447484
 C         2.673550         0.254245         0.847680
 H        -0.272023         0.198422         1.316567
 H        -0.064275         1.363628        -0.055859
 H        -0.737174        -0.341112        -0.354815
 H         1.330825        -2.109097         0.807535
 H         1.853819        -2.287467        -0.878223
 H         3.657837        -2.504545         1.956778
 H         4.802155         0.339275        -0.158817
 H         3.247629         1.545991        -1.669376
 H         3.505045        -0.160508        -2.334398
 H         2.735471         0.875636         1.816557
