19
Iteration:  1474charge 0 multiplicity 1
 C        -0.001582         0.102915         0.217583
 C         1.427983        -0.068159        -0.109821
 C         1.966874        -1.588959        -0.002249
 C         3.216755        -1.090051         0.687820
 O         4.177740        -1.874861         1.375063
 C         3.771464         0.154994        -0.094063
 C         3.198264         0.072838        -1.503223
 O         1.789757         0.554439        -1.456861
 C         2.635149         0.366318         0.871261
 H        -0.362707        -0.127015         1.260729
 H        -0.330164         1.170299         0.103395
 H        -0.660310        -0.545559        -0.342146
 H         1.320124        -2.138309         0.652912
 H         1.979349        -2.075319        -0.951036
 H         3.839021        -1.960453         2.275784
 H         4.767213         0.560495         0.148973
 H         3.736206         0.722798        -2.168943
 H         3.212812        -0.969303        -1.947651
 H         2.588534         0.849872         1.827301
