19
Iteration:   991
 C        -0.004140         0.180597         0.177677
 C         1.434012        -0.158012        -0.105895
 C         1.865996        -1.694781         0.035766
 C         3.230505        -1.174794         0.612788
 O         4.186684        -1.771021         1.362224
 C         3.754742         0.050935        -0.120789
 C         3.213421         0.431660        -1.506736
 O         1.800750         0.353514        -1.422715
 C         2.653739         0.331148         0.930455
 H        -0.177717        -0.081367         1.208229
 H        -0.165552         1.221466         0.094983
 H        -0.588708        -0.511070        -0.424276
 H         1.304203        -2.240987         0.868720
 H         1.917895        -2.433276        -0.832599
 H         3.713352        -1.839806         2.218282
 H         4.679826         0.442998         0.153319
 H         3.517554         1.501212        -1.645102
 H         3.529166        -0.236999        -2.312948
 H         2.837590         1.005525         1.717308
