19
Iteration:  2448charge 0 multiplicity 1
 C         0.044030         0.273615         0.272329
 C         1.456573        -0.180086        -0.055073
 C         1.865642        -1.684192         0.109480
 C         3.210630        -1.056586         0.665934
 O         4.079867        -1.829251         1.236959
 C         3.737239         0.160145        -0.149634
 C         3.279653         0.488289        -1.504308
 O         1.853805         0.150347        -1.413346
 C         2.616057         0.242278         0.849880
 H        -0.078196        -0.013235         1.417319
 H        -0.240370         1.355592        -0.104057
 H        -0.550221        -0.349797        -0.404946
 H         1.172631        -2.152505         0.750509
 H         2.008644        -2.458520        -0.732445
 H         3.944182        -1.876175         2.208501
 H         4.816778         0.595545         0.056138
 H         3.341612         1.620078        -1.530229
 H         3.786857         0.000775        -2.375690
 H         2.485641         0.957893         1.630252
