19
Iteration:  4975charge 0 multiplicity 1
 C         0.106873         0.361374         0.186465
 C         1.433148        -0.162836        -0.130380
 C         1.825588        -1.657529         0.243739
 C         3.187124        -1.130158         0.742984
 O         4.169896        -1.830990         1.333714
 C         3.764224         0.005598        -0.147087
 C         3.191825         0.446588        -1.553781
 O         1.804443         0.202610        -1.516975
 C         2.650735         0.320924         0.818511
 H        -0.417264         0.062508         1.071957
 H         0.093481         1.426409         0.446886
 H        -0.651451         0.248118        -0.681823
 H         1.251559        -1.948714         1.103319
 H         1.921791        -2.511235        -0.493044
 H         3.826250        -2.522409         1.950188
 H         4.794219         0.261320         0.179614
 H         3.411190         1.561439        -1.567342
 H         3.779834         0.043574        -2.356147
 H         2.631898         0.965685         1.706373
