19
Iteration:  4042
 C         0.015180         0.175497         0.098488
 C         1.452804        -0.125286        -0.051122
 C         1.915528        -1.625526         0.163872
 C         3.229756        -1.138299         0.593948
 O         4.114690        -1.871988         1.370632
 C         3.773917         0.064275        -0.134798
 C         3.221799         0.404309        -1.448189
 O         1.753865         0.410802        -1.343600
 C         2.672304         0.367891         0.829974
 H        -0.585845        -0.513168         0.886405
 H        -0.084197         1.289108         0.310050
 H        -0.533844        -0.052813        -0.850854
 H         1.468571        -2.138829         0.993621
 H         1.839976        -2.373854        -0.573707
 H         4.276566        -2.711826         0.885938
 H         4.786947         0.080662         0.051509
 H         3.453145         1.324983        -1.876580
 H         3.493903        -0.278897        -2.241274
 H         2.754380         1.035465         1.727066
