19
Iteration:  1663charge 0 multiplicity 1
 C         0.018148         0.149285         0.236305
 C         1.444488        -0.135583        -0.141921
 C         1.954818        -1.546389         0.116760
 C         3.228300        -1.016517         0.740462
 O         4.120492        -1.893568         1.391183
 C         3.818696         0.124547        -0.167950
 C         3.194838         0.279247        -1.554395
 O         1.738804         0.369784        -1.418327
 C         2.686376         0.335130         0.826451
 H        -0.074949        -0.389065         1.151068
 H        -0.284548         1.189405         0.127627
 H        -0.680780        -0.373773        -0.493707
 H         1.424859        -2.171767         0.812157
 H         2.079270        -2.220777        -0.735835
 H         3.438610        -2.493745         1.781005
 H         4.861116         0.482593         0.162656
 H         3.638276         1.170997        -1.896182
 H         3.405523        -0.530541        -2.294890
 H         2.442103         1.194472         1.516049
