19
Iteration:  2883
 C         0.107375         0.102941         0.415729
 C         1.501244        -0.121772        -0.120089
 C         2.031501        -1.593904        -0.119960
 C         3.185182        -1.086171         0.658548
 O         4.020513        -1.788855         1.468625
 C         3.717317         0.084648        -0.150924
 C         3.211856         0.319192        -1.593853
 O         1.775845         0.446636        -1.443192
 C         2.619437         0.243306         0.854592
 H         0.048633        -0.273676         1.507700
 H        -0.266731         1.190391         0.320514
 H        -0.659297        -0.367816        -0.263809
 H         1.390768        -2.200262         0.511203
 H         2.256940        -2.037152        -1.020950
 H         3.563901        -2.378174         2.102794
 H         4.677432         0.390490         0.012011
 H         3.630238         1.123352        -2.101866
 H         3.563861        -0.451586        -2.277217
 H         2.706159         0.857681         1.835667
