19
Iteration:  1430charge 0 multiplicity 1
 C         0.086886         0.182720         0.368923
 C         1.461774        -0.194449        -0.124072
 C         1.986770        -1.703452        -0.047335
 C         3.230348        -1.143777         0.624697
 O         3.964120        -1.766597         1.586529
 C         3.818098         0.022708        -0.221652
 C         3.179015         0.510743        -1.560350
 O         1.742967         0.364578        -1.466216
 C         2.748738         0.274931         0.731617
 H        -0.419721        -0.240435         1.386937
 H         0.056672         1.354472         0.322758
 H        -0.667058        -0.261472        -0.360101
 H         1.377312        -2.149008         0.737802
 H         2.100105        -2.383356        -0.862205
 H         3.492307        -1.837864         2.424859
 H         4.913929         0.153171         0.062395
 H         3.430087         1.556377        -1.878043
 H         3.597770        -0.244760        -2.347745
 H         2.806490         0.841221         1.685451
