19
Iteration:   125
 C         0.003355         0.090125         0.088441
 C         1.428396        -0.049782        -0.071703
 C         1.957761        -1.619849         0.041395
 C         3.206645        -1.069066         0.688346
 O         4.146867        -1.926888         1.450088
 C         3.752167         0.162120        -0.026890
 C         3.164629         0.213369        -1.487210
 O         1.758072         0.489497        -1.439816
 C         2.669135         0.371719         0.925626
 H        -0.259623        -0.275050         1.128382
 H        -0.433424         1.119405        -0.271243
 H        -0.267061        -0.648170        -0.736228
 H         1.305271        -2.218806         0.724361
 H         2.071578        -1.977952        -0.954559
 H         4.672268        -2.334400         0.754248
 H         4.758717         0.500792        -0.017689
 H         3.574017         1.103111        -2.089986
 H         3.360718        -0.761732        -1.969902
 H         2.691700         1.064607         1.749730
