19
Iteration:  1075
 C         0.046742         0.133688         0.295523
 C         1.476280        -0.149663        -0.121446
 C         1.928498        -1.656715         0.044503
 C         3.239071        -1.137022         0.583808
 O         4.076797        -1.758379         1.538906
 C         3.698809         0.092764        -0.180739
 C         3.243726         0.495800        -1.556179
 O         1.772964         0.335591        -1.440384
 C         2.676497         0.251182         0.818976
 H        -0.231449        -0.576982         1.073990
 H        -0.131644         1.172690         0.673584
 H        -0.631107        -0.068159        -0.618245
 H         1.359728        -2.163420         0.801768
 H         2.027289        -2.225927        -0.887005
 H         3.798554        -2.655461         1.761324
 H         4.723144         0.260946        -0.002062
 H         3.598457         1.519980        -1.784302
 H         3.644337        -0.187817        -2.330145
 H         2.672972         1.081639         1.487127
