19
Iteration:  3194charge 0 multiplicity 1
 C         0.062156         0.162324         0.308972
 C         1.462489        -0.172721        -0.110121
 C         1.957981        -1.639741        -0.032861
 C         3.265724        -1.112095         0.540592
 O         3.976248        -1.824833         1.425082
 C         3.804388         0.228360        -0.109263
 C         3.251379         0.489737        -1.518248
 O         1.830069         0.274533        -1.352213
 C         2.558421         0.212489         0.834417
 H         0.008703         0.132393         1.425231
 H        -0.120529         1.230583         0.154988
 H        -0.726924        -0.398624        -0.264177
 H         1.579287        -2.194543         0.720646
 H         1.898844        -2.207681        -0.932676
 H         4.165113        -2.641585         0.941127
 H         4.691016         0.498720         0.360074
 H         3.428333         1.530006        -1.604739
 H         3.568869        -0.288301        -2.221698
 H         2.396658         0.872332         1.658380
