19
Iteration:  3945
 C         0.094874         0.208548         0.422773
 C         1.461228        -0.154430        -0.176250
 C         1.959318        -1.659156        -0.024387
 C         3.262535        -1.144623         0.518963
 O         3.859404        -1.867324         1.564630
 C         3.861305         0.105331        -0.212954
 C         3.208155         0.572849        -1.482034
 O         1.778946         0.283693        -1.474652
 C         2.664560         0.222709         0.762480
 H        -0.026731        -0.117479         1.538745
 H         0.003570         1.294350         0.623115
 H        -0.684360        -0.247376        -0.195498
 H         1.475518        -2.253670         0.819810
 H         1.772988        -2.390958        -0.783347
 H         4.731635        -2.021876         1.132521
 H         4.691596         0.472258         0.301176
 H         3.419037         1.749248        -1.634332
 H         3.684842         0.097286        -2.340605
 H         2.706772         0.684663         1.753972
