19
Iteration:  1668charge 0 multiplicity 1
 C         0.055906         0.170111         0.236781
 C         1.471084        -0.172099        -0.143363
 C         1.970578        -1.581318         0.114576
 C         3.246957        -1.038973         0.744255
 O         4.093083        -1.882485         1.379997
 C         3.806043         0.147377        -0.133921
 C         3.176630         0.330829        -1.581416
 O         1.744233         0.322706        -1.448360
 C         2.677108         0.344920         0.861822
 H        -0.110238        -0.254155         1.277736
 H        -0.253201         1.232442         0.128939
 H        -0.749313        -0.185295        -0.426254
 H         1.289563        -2.133903         0.839204
 H         2.024996        -2.248641        -0.771822
 H         3.477140        -2.446187         1.873046
 H         4.792830         0.374694         0.114588
 H         3.583455         1.327859        -2.051856
 H         3.437294        -0.457651        -2.280577
 H         2.407075         1.087407         1.568566
