19
Iteration:   594
 C         0.011072         0.130439         0.131698
 C         1.417368        -0.167116        -0.106549
 C         1.988114        -1.570234         0.050890
 C         3.253168        -1.050013         0.682657
 O         4.110683        -1.889308         1.334614
 C         3.754008         0.193131        -0.072250
 C         3.228154         0.300819        -1.582304
 O         1.800422         0.386808        -1.348691
 C         2.607716         0.300685         0.933780
 H        -0.170168         0.062659         1.245187
 H        -0.440968         1.049074        -0.314900
 H        -0.430795        -0.804931        -0.321579
 H         1.387599        -2.155465         0.666591
 H         2.075397        -2.057677        -0.888853
 H         3.624171        -2.230430         2.123441
 H         4.782798         0.437729         0.232280
 H         3.513400         1.186781        -2.080808
 H         3.524931        -0.469482        -2.190268
 H         2.586263         1.121433         1.663443
