19
Iteration:  2785charge 0 multiplicity 1
 C        -0.006490         0.330934         0.253878
 C         1.428740        -0.209414        -0.103279
 C         1.935566        -1.732378         0.107153
 C         3.180935        -1.084872         0.634826
 O         4.191771        -1.827165         1.375701
 C         3.700089         0.074722        -0.183900
 C         3.239240         0.558357        -1.529492
 O         1.817472         0.192704        -1.468439
 C         2.598853         0.257723         0.837071
 H        -0.465663        -0.010324         1.218279
 H         0.168783         1.468956         0.321340
 H        -0.761252        -0.051178        -0.376792
 H         1.554515        -2.273728         1.025172
 H         2.049125        -2.257789        -0.882550
 H         3.836592        -2.214207         2.207776
 H         4.676155         0.164321         0.360139
 H         3.508865         1.625908        -1.625218
 H         3.712660         0.129298        -2.413232
 H         2.791759         0.969593         1.806393
