19
Iteration:  2703
 C         0.074171        -0.006321         0.162789
 C         1.561691        -0.073376        -0.080374
 C         1.938830        -1.528645         0.019362
 C         3.255006        -1.138725         0.642580
 O         4.194706        -1.777815         1.476098
 C         3.686907        -0.012044        -0.186829
 C         3.080642         0.202872        -1.588547
 O         1.759074         0.610034        -1.333920
 C         2.645643         0.277087         0.890960
 H        -0.236394        -0.162448         1.185192
 H        -0.195484         1.011559        -0.111496
 H        -0.522671        -0.421958        -0.714310
 H         1.249248        -2.048233         0.607093
 H         1.907606        -2.088007        -0.876547
 H         3.759089        -2.170780         2.258735
 H         4.613181         0.434644         0.004463
 H         3.632787         1.001252        -2.118362
 H         3.039640        -0.751316        -2.159045
 H         2.727346         0.989229         1.699338
