19
Iteration:  3576charge 0 multiplicity 1
 C        -0.045842         0.168712         0.128450
 C         1.426127        -0.084626        -0.106432
 C         1.926151        -1.606684         0.019884
 C         3.323310        -1.130089         0.578565
 O         4.140713        -1.897999         1.455151
 C         3.762943         0.138141        -0.113545
 C         3.154572         0.275239        -1.473854
 O         1.806138         0.530302        -1.335551
 C         2.609025         0.228768         0.891295
 H        -0.430833        -0.470311         0.974492
 H        -0.110406         1.267418         0.326180
 H        -0.750966        -0.221726        -0.678320
 H         1.428229        -2.051032         0.846596
 H         1.795125        -2.342248        -0.733874
 H         4.957719        -2.058333         0.930361
 H         4.703739         0.527755         0.091107
 H         3.572703         1.087353        -2.099159
 H         3.380680        -0.677915        -2.176782
 H         2.570318         0.705516         1.885214
