19
Iteration:  2823charge 0 multiplicity 1
 C         0.015433         0.189881         0.089255
 C         1.437281        -0.114668        -0.064304
 C         1.874344        -1.646496         0.132205
 C         3.225395        -1.128302         0.636738
 O         4.240645        -1.836009         1.331871
 C         3.738253         0.102185        -0.146393
 C         3.231993         0.391859        -1.589345
 O         1.758972         0.380234        -1.345244
 C         2.660245         0.289996         0.983337
 H        -0.520502        -0.187553         0.948137
 H        -0.097284         1.277575         0.043146
 H        -0.497712        -0.405620        -0.822065
 H         1.345669        -2.170855         0.953282
 H         1.651309        -2.276241        -0.828085
 H         3.763239        -2.285944         2.050617
 H         4.811699         0.431961         0.012058
 H         3.403667         1.422357        -2.049447
 H         3.359783        -0.569996        -2.092761
 H         2.741243         0.796944         1.865898
