19
Iteration:  3997charge 0 multiplicity 1
 C         0.015041         0.154246         0.252934
 C         1.492836        -0.102586        -0.120332
 C         2.030160        -1.635886        -0.134791
 C         3.241538        -1.128829         0.620145
 O         4.033961        -1.816720         1.515713
 C         3.784141         0.065385        -0.150770
 C         3.140791         0.215408        -1.490243
 O         1.737561         0.594894        -1.289454
 C         2.693749         0.290529         0.848672
 H        -0.172724        -0.330867         1.335851
 H        -0.285345         1.210713         0.038337
 H        -0.700891        -0.532657        -0.280730
 H         1.342928        -2.310001         0.309999
 H         2.117723        -2.128132        -1.096996
 H         4.359607        -2.620344         1.055383
 H         4.781895         0.378621         0.164100
 H         3.702247         0.903687        -2.025816
 H         3.214910        -0.633671        -2.212367
 H         2.655702         1.076975         1.561707
