19
Iteration:  4578charge 0 multiplicity 1
 C         0.056569         0.282028         0.329829
 C         1.466337        -0.156796        -0.132939
 C         1.962810        -1.645762        -0.082997
 C         3.247722        -1.183654         0.537274
 O         3.971338        -1.778372         1.572083
 C         3.751236         0.060343        -0.159372
 C         3.235872         0.439069        -1.519337
 O         1.779801         0.354350        -1.438423
 C         2.656224         0.194117         0.888679
 H        -0.070316         0.317290         1.495330
 H        -0.188489         1.387122         0.151790
 H        -0.754555        -0.360541        -0.178121
 H         1.400666        -2.221747         0.571279
 H         2.043466        -2.187324        -1.029512
 H         4.573047        -2.431968         1.129056
 H         4.756895         0.350667         0.115631
 H         3.406200         1.494182        -1.931533
 H         3.667324        -0.324243        -2.284741
 H         2.761395         0.638482         1.856849
