19
Iteration:  4467charge 0 multiplicity 1
 C        -0.048661         0.275768         0.047625
 C         1.493750        -0.118576        -0.055892
 C         1.993795        -1.638252         0.085859
 C         3.301954        -1.111537         0.658720
 O         4.140646        -1.941044         1.345496
 C         3.694829         0.117426        -0.068053
 C         3.144054         0.147216        -1.543501
 O         1.790068         0.547853        -1.302430
 C         2.611207         0.286497         0.936975
 H        -0.530955         0.050051         1.089613
 H        -0.135501         1.366915        -0.313766
 H        -0.738134        -0.165196        -0.674465
 H         1.358253        -2.121328         0.736213
 H         1.902423        -2.236805        -0.791415
 H         5.021045        -1.849826         0.947043
 H         4.683392         0.574879         0.168034
 H         3.574041         0.834181        -2.200868
 H         3.202374        -0.896633        -1.847879
 H         2.622738         0.983356         1.831240
