19
Iteration:  2859
 C         0.043700         0.064662         0.281473
 C         1.474354        -0.103828        -0.109834
 C         1.932870        -1.586091        -0.081760
 C         3.260072        -1.073646         0.674168
 O         4.153131        -1.923976         1.403254
 C         3.791951         0.125561        -0.077933
 C         3.214495         0.224857        -1.506814
 O         1.739503         0.494772        -1.389732
 C         2.566871         0.425137         0.811205
 H         0.005574        -0.254712         1.384218
 H        -0.233425         1.144211         0.248736
 H        -0.792517        -0.474522        -0.348047
 H         1.208166        -2.141502         0.543420
 H         2.146201        -2.034418        -1.013882
 H         3.674374        -2.523777         1.994598
 H         4.773285         0.620410         0.108079
 H         3.710588         0.830172        -2.241002
 H         3.436811        -0.717075        -2.052307
 H         2.522297         1.255038         1.637657
