19
Iteration:  2719charge 0 multiplicity 1
 C        -0.050654         0.110918         0.245633
 C         1.427353        -0.102652        -0.088571
 C         1.989661        -1.651352        -0.055666
 C         3.235290        -1.123007         0.712029
 O         4.174364        -1.786221         1.484992
 C         3.788124         0.023711        -0.198450
 C         3.175032         0.227298        -1.565540
 O         1.761792         0.576086        -1.324324
 C         2.657081         0.334305         0.773884
 H        -0.127850        -0.296125         1.282175
 H        -0.433464         1.162108         0.119791
 H        -0.605468        -0.620074        -0.368472
 H         1.354586        -2.336145         0.639862
 H         2.164860        -2.255317        -1.020846
 H         3.627659        -2.282356         2.114121
 H         4.857233         0.267353         0.099227
 H         3.646415         1.024951        -2.163315
 H         3.271113        -0.563903        -2.317218
 H         2.749289         1.193535         1.532629
