19
Iteration:  2543
 C        -0.116438         0.069110         0.270596
 C         1.421455        -0.128214        -0.110527
 C         1.949901        -1.528645         0.040758
 C         3.260246        -1.030650         0.612580
 O         4.150954        -1.894771         1.370186
 C         3.797708         0.141122        -0.106861
 C         3.324015         0.116613        -1.584383
 O         1.785199         0.569314        -1.406862
 C         2.608245         0.334742         0.869669
 H        -0.120031        -0.422691         1.220529
 H        -0.386603         1.080096         0.365416
 H        -0.808069        -0.476835        -0.418096
 H         1.368156        -2.227727         0.732012
 H         2.057253        -2.122188        -0.885283
 H         3.912632        -2.119588         2.276064
 H         4.824187         0.548886         0.244036
 H         3.609578         0.897549        -2.309931
 H         3.146982        -0.927094        -1.849765
 H         2.623328         1.048880         1.667469
