19
Iteration:   917
 C        -0.010075         0.197632         0.287919
 C         1.431753        -0.187563        -0.129254
 C         1.963507        -1.691475        -0.009037
 C         3.253391        -1.088693         0.632965
 O         4.120330        -1.789177         1.423039
 C         3.742870         0.107309        -0.129168
 C         3.230186         0.328889        -1.546617
 O         1.824438         0.364846        -1.414546
 C         2.595012         0.332928         0.846709
 H         0.000475        -0.271413         1.380378
 H        -0.115825         1.352494         0.398647
 H        -0.898024        -0.304913        -0.257909
 H         1.457633        -2.408064         0.620950
 H         1.938858        -2.116753        -0.973186
 H         3.550378        -2.360876         1.951207
 H         4.594168         0.603680         0.240910
 H         3.677985         1.337211        -1.864975
 H         3.685896        -0.346169        -2.309348
 H         2.657775         1.066253         1.595353
