19
Iteration:  2666
 C        -0.121232         0.179545         0.204298
 C         1.398184        -0.180382        -0.058179
 C         1.961165        -1.589512         0.066075
 C         3.290470        -1.074021         0.623545
 O         4.177072        -1.857856         1.353286
 C         3.755296         0.071675        -0.148369
 C         3.216044         0.291854        -1.493493
 O         1.814975         0.362579        -1.376456
 C         2.656300         0.356108         0.796653
 H        -0.584560        -0.220912         1.120187
 H         0.020299         1.277310         0.295358
 H        -0.716712        -0.254847        -0.496188
 H         1.563910        -2.090233         0.969506
 H         2.011163        -2.200709        -0.904961
 H         3.663099        -1.976610         2.168282
 H         4.744343         0.501122         0.167760
 H         3.686561         1.311538        -1.888041
 H         3.395902        -0.521859        -2.268471
 H         2.615623         1.182634         1.680151
