19
Iteration:  4002
 C        -0.015152         0.138325         0.236999
 C         1.463962        -0.106875        -0.074269
 C         2.007986        -1.607134        -0.118754
 C         3.287704        -1.096461         0.595802
 O         4.079238        -1.856458         1.530479
 C         3.766139         0.070472        -0.126067
 C         3.145494         0.196758        -1.547836
 O         1.742986         0.617198        -1.288449
 C         2.674869         0.266702         0.845498
 H        -0.197666        -0.277705         1.180784
 H        -0.279402         1.161946        -0.026936
 H        -0.661598        -0.415716        -0.465157
 H         1.300445        -2.214248         0.552911
 H         2.118941        -1.947871        -1.181105
 H         4.326820        -2.709702         1.145563
 H         4.796317         0.409095         0.031433
 H         3.749126         1.016462        -2.122185
 H         3.243395        -0.803220        -2.011581
 H         2.616244         1.030068         1.665093
