19
Iteration:  3527charge 0 multiplicity 1
 C        -0.002654         0.336220         0.230789
 C         1.394164        -0.175588        -0.161850
 C         1.919739        -1.601172         0.069149
 C         3.262933        -1.143018         0.579850
 O         4.133194        -1.947030         1.357624
 C         3.717342         0.179793        -0.044748
 C         3.277971         0.537818        -1.424316
 O         1.797686         0.127457        -1.478599
 C         2.574699         0.234361         0.905951
 H        -0.167306         0.376071         1.335359
 H         0.089798         1.404809        -0.126536
 H        -0.857128        -0.263566        -0.067255
 H         1.385707        -2.208548         0.886323
 H         1.840431        -2.349721        -0.752320
 H         4.992977        -1.825959         0.919681
 H         4.732056         0.486364         0.468515
 H         3.045643         1.624730        -1.529407
 H         3.822953         0.100687        -2.290639
 H         2.628803         1.078766         1.594612
