19
Iteration:  4317charge 0 multiplicity 1
 C        -0.073432         0.130825         0.115315
 C         1.419757        -0.028508        -0.117720
 C         1.946794        -1.585125         0.113268
 C         3.267401        -1.090910         0.667529
 O         4.067178        -2.001094         1.329908
 C         3.758522         0.132209        -0.101404
 C         3.174883         0.192735        -1.517840
 O         1.847724         0.564835        -1.363495
 C         2.686819         0.300182         0.909123
 H        -0.264537        -0.082930         1.132166
 H        -0.405131         1.110889         0.212992
 H        -0.601252        -0.474821        -0.578773
 H         1.394985        -2.138067         0.985256
 H         1.920065        -2.188590        -0.843977
 H         4.868382        -1.591520         1.712252
 H         4.734007         0.526668         0.021463
 H         3.582902         0.860734        -2.370828
 H         3.295456        -0.810878        -2.039834
 H         2.807161         0.905111         1.851863
