19
Iteration:  3415
 C         0.000299         0.093600         0.306356
 C         1.468863        -0.150842        -0.124432
 C         2.010003        -1.625569        -0.086131
 C         3.277360        -1.104825         0.560411
 O         3.993364        -1.822137         1.547227
 C         3.780793         0.135916        -0.141373
 C         3.218790         0.316872        -1.582287
 O         1.780494         0.532574        -1.374790
 C         2.628066         0.263590         0.899135
 H        -0.243529        -0.643022         1.026924
 H        -0.111527         1.145426         0.649692
 H        -0.808141        -0.143470        -0.426860
 H         1.472427        -2.174660         0.683781
 H         1.972219        -2.286428        -1.015852
 H         4.380126        -2.615532         1.148840
 H         4.701052         0.444439         0.148626
 H         3.548356         1.142924        -2.270783
 H         3.558567        -0.535697        -2.095398
 H         2.677235         0.915769         1.782553
