19
Iteration:  2077
 C        -0.083644         0.229202         0.055950
 C         1.403509        -0.104850        -0.028462
 C         1.858393        -1.575710         0.083838
 C         3.272074        -1.099115         0.605662
 O         4.231510        -1.851322         1.349730
 C         3.699114         0.098359        -0.095191
 C         3.208356         0.235276        -1.495151
 O         1.770740         0.382678        -1.328069
 C         2.717018         0.315240         0.972041
 H        -0.498762        -0.073749         1.005081
 H        -0.123815         1.297287        -0.157722
 H        -0.490114        -0.256020        -0.841026
 H         1.406143        -2.134905         0.850949
 H         1.753595        -2.164329        -0.771712
 H         4.734150        -2.522866         0.833818
 H         4.669475         0.548831         0.215709
 H         3.527955         1.074506        -2.185464
 H         3.422672        -0.635820        -2.081664
 H         2.806402         0.937757         1.975175
