19
Iteration:  4352charge 0 multiplicity 1
 C         0.086281         0.215807         0.248044
 C         1.483220        -0.123737        -0.114188
 C         1.923700        -1.633985        -0.064793
 C         3.213678        -1.138002         0.665241
 O         4.052067        -1.870100         1.493524
 C         3.746669         0.040980        -0.167202
 C         3.177359         0.279849        -1.557887
 O         1.802979         0.483031        -1.309197
 C         2.607215         0.246602         0.829066
 H        -0.105389        -0.463042         0.994639
 H         0.099719         1.264481         0.346982
 H        -0.600681         0.031325        -0.591964
 H         1.264687        -2.350839         0.567668
 H         1.947007        -2.095643        -1.086150
 H         4.793940        -1.284363         1.751520
 H         4.660969         0.498972         0.062260
 H         3.479718         1.235361        -2.001714
 H         3.320437        -0.628424        -2.235581
 H         2.738020         1.080962         1.556447
