19
Iteration:  4059charge 0 multiplicity 1
 C         0.002950         0.248050         0.224152
 C         1.468152        -0.150957        -0.052569
 C         1.837696        -1.627360         0.113276
 C         3.206543        -1.099572         0.682822
 O         4.125261        -1.869170         1.382288
 C         3.755850         0.023672        -0.160611
 C         3.240469         0.504855        -1.519559
 O         1.842372         0.226277        -1.423424
 C         2.632463         0.316708         0.847181
 H        -0.402901        -0.210755         1.034371
 H        -0.127989         1.252929         0.589096
 H        -0.495114        -0.012244        -0.705167
 H         1.182780        -2.132163         0.874294
 H         1.819887        -2.240255        -0.901822
 H         4.464174        -2.485759         0.696413
 H         4.746906         0.455869         0.188186
 H         3.488606         1.674799        -1.481543
 H         3.687344         0.094253        -2.484515
 H         2.567696         1.045815         1.601612
