19
Iteration:  2274
 C        -0.062564         0.283932         0.131686
 C         1.411582        -0.189084        -0.071729
 C         1.901509        -1.671315         0.049107
 C         3.239262        -1.089480         0.649687
 O         4.225429        -1.858801         1.430464
 C         3.745259         0.029033        -0.144260
 C         3.200456         0.323859        -1.521635
 O         1.772760         0.438524        -1.316285
 C         2.595193         0.262399         0.868902
 H        -0.311533         0.150735         1.205396
 H        -0.117498         1.355564        -0.141792
 H        -0.655095        -0.314602        -0.420034
 H         1.365491        -2.068533         0.926686
 H         1.937104        -2.369886        -0.854538
 H         4.876327        -2.036581         0.711180
 H         4.782115         0.389679         0.245325
 H         3.603585         1.270668        -1.887062
 H         3.587034        -0.457267        -2.274900
 H         2.730415         1.159374         1.496008
