19
Iteration:  2636charge 0 multiplicity 1
 C         0.171771         0.279130         0.275914
 C         1.476276        -0.183192        -0.151501
 C         1.907957        -1.687973         0.088210
 C         3.128651        -1.078461         0.664390
 O         4.171310        -1.814298         1.392088
 C         3.648593         0.169752        -0.074187
 C         3.164091         0.495913        -1.585658
 O         1.803676         0.146854        -1.514696
 C         2.676595         0.299026         0.870690
 H        -0.037289        -0.152612         1.281217
 H         0.103756         1.417445         0.443491
 H        -0.664451         0.015625        -0.440723
 H         1.249204        -2.147763         0.744348
 H         2.040366        -2.337405        -0.783675
 H         3.794141        -2.539855         1.936424
 H         4.744863         0.444525         0.130003
 H         3.334113         1.574368        -1.732035
 H         3.576083        -0.275958        -2.209188
 H         2.318652         0.894849         1.892367
