19
Iteration:  2852
 C        -0.015919         0.082306         0.281162
 C         1.425554        -0.128626        -0.140668
 C         1.991328        -1.557651        -0.020151
 C         3.266823        -1.054010         0.682480
 O         4.142358        -1.906753         1.346283
 C         3.755595         0.093588        -0.070891
 C         3.229686         0.217487        -1.485466
 O         1.783766         0.500180        -1.354180
 C         2.602214         0.386344         0.761123
 H        -0.424481        -0.241026         1.235125
 H        -0.154163         1.188151         0.195754
 H        -0.581591        -0.504455        -0.325214
 H         1.426394        -2.061498         0.770545
 H         2.055191        -2.088901        -0.993106
 H         3.658632        -2.466060         1.972730
 H         4.634495         0.576652         0.143062
 H         3.664934         0.978620        -2.150856
 H         3.363516        -0.737675        -2.002718
 H         2.622752         1.144235         1.552541
