19
Iteration:  3437
 C         0.100335         0.079045         0.291219
 C         1.487013        -0.130527        -0.120442
 C         1.982027        -1.685456        -0.099348
 C         3.197283        -1.084795         0.626711
 O         4.036369        -1.731287         1.485903
 C         3.802862         0.138245        -0.115121
 C         3.124019         0.182214        -1.499956
 O         1.826175         0.633089        -1.311973
 C         2.579595         0.206650         0.817004
 H        -0.309463        -0.629485         0.925028
 H         0.049162         1.152007         0.552867
 H        -0.582465        -0.113198        -0.541020
 H         1.437114        -2.402902         0.485804
 H         2.172454        -2.295525        -1.101486
 H         4.287366        -2.518536         0.947433
 H         4.647640         0.629011         0.093045
 H         3.611186         0.929327        -2.203794
 H         3.271420        -0.714739        -2.054042
 H         2.477766         0.837845         1.689050
