19
Iteration:   196charge 0 multiplicity 1
 C         0.166717         0.243721         0.311992
 C         1.494971        -0.265577        -0.129374
 C         1.876077        -1.727780        -0.101812
 C         3.271745        -1.133883         0.672419
 O         4.005922        -1.791415         1.653648
 C         3.685036         0.079314        -0.199326
 C         3.190741         0.557986        -1.566636
 O         1.793292         0.324120        -1.529499
 C         2.612080         0.112008         0.862337
 H        -0.039298        -0.187439         1.284735
 H         0.229386         1.282214         0.460676
 H        -0.675879         0.131624        -0.466052
 H         1.213051        -2.269706         0.524080
 H         2.233486        -1.910065        -1.132975
 H         4.908661        -1.497676         1.826886
 H         4.642184         0.661721         0.113963
 H         3.316763         1.630067        -1.607747
 H         3.512297         0.005703        -2.501435
 H         2.438047         0.974660         1.682342
