19
Iteration:  2907charge 0 multiplicity 1
 C         0.050975         0.194841         0.369088
 C         1.453277        -0.204527        -0.140557
 C         1.928170        -1.750594        -0.069516
 C         3.292687        -1.156016         0.526579
 O         4.052798        -1.774822         1.562982
 C         3.818986         0.073926        -0.171045
 C         3.177844         0.455077        -1.531244
 O         1.773228         0.428014        -1.344481
 C         2.674732         0.234723         0.706177
 H        -0.080753        -0.258856         1.382340
 H        -0.315447         1.296494         0.300735
 H        -0.642173        -0.130531        -0.376804
 H         1.564379        -2.373418         0.722694
 H         1.844757        -2.253960        -1.049266
 H         3.384735        -1.929613         2.268676
 H         4.877531         0.298848         0.122533
 H         3.453350         1.501381        -1.729384
 H         3.515286        -0.021759        -2.433696
 H         2.568094         0.998770         1.386954
