19
Iteration:   115charge 0 multiplicity 1
 C        -0.073250         0.082798         0.047597
 C         1.457042        -0.097931        -0.068737
 C         2.032588        -1.596006         0.036190
 C         3.259144        -1.048321         0.709513
 O         4.111162        -1.844828         1.396944
 C         3.767650         0.077264        -0.115563
 C         3.186359         0.204589        -1.452328
 O         1.774629         0.530660        -1.388001
 C         2.617441         0.350426         0.964242
 H        -0.601282        -0.102266         1.036980
 H        -0.358405         1.201140        -0.107127
 H        -0.728425        -0.590190        -0.642097
 H         1.610815        -2.215968         0.852558
 H         2.075834        -2.193000        -0.849673
 H         4.489499        -2.370445         0.685486
 H         4.759562         0.233461         0.181010
 H         3.836615         0.877518        -2.100962
 H         3.224726        -0.754502        -2.025360
 H         2.695973         1.029344         1.749375
