19
Iteration:  1032
 C        -0.105438         0.161349         0.098871
 C         1.415317        -0.098744        -0.049448
 C         2.081463        -1.696730         0.021473
 C         3.280036        -1.019049         0.654776
 O         4.227971        -1.864297         1.279021
 C         3.680857         0.179918        -0.066579
 C         3.178159         0.104399        -1.459455
 O         1.831941         0.488244        -1.338307
 C         2.569875         0.388988         0.933180
 H        -0.668096        -0.403204         0.779631
 H        -0.273750         1.172049         0.498292
 H        -0.721051         0.061374        -0.815955
 H         1.500422        -2.228429         0.807934
 H         2.170200        -2.342652        -0.947365
 H         3.730079        -2.474520         1.843747
 H         4.625995         0.597997         0.203770
 H         3.574914         0.836541        -2.230382
 H         3.275127        -0.951038        -1.916352
 H         2.775326         1.265535         1.498044
