19
Iteration:  1554
 C         0.154047         0.315738         0.337674
 C         1.440814        -0.244710        -0.093170
 C         1.876498        -1.691271         0.144006
 C         3.231618        -1.055901         0.527006
 O         4.066450        -1.770421         1.421071
 C         3.771074         0.081697        -0.163067
 C         3.226793         0.543897        -1.435659
 O         1.827742         0.064982        -1.564774
 C         2.568616         0.280874         0.795055
 H         0.042344        -0.113773         1.355488
 H         0.142838         1.415049         0.343504
 H        -0.631196         0.055099        -0.398161
 H         1.437735        -2.183915         0.943011
 H         1.723617        -2.123442        -0.815009
 H         3.572069        -2.071242         2.195069
 H         4.843088         0.349433        -0.039289
 H         3.379663         1.648397        -1.464006
 H         3.635153         0.154370        -2.381108
 H         2.458283         1.127448         1.571755
