19
Iteration:  1793charge 0 multiplicity 1
 C         0.060986         0.007245         0.269555
 C         1.499837        -0.074324        -0.111398
 C         1.959757        -1.481120        -0.042879
 C         3.213235        -1.016906         0.686496
 O         4.114011        -1.857389         1.367983
 C         3.727437         0.113271        -0.109060
 C         3.238457         0.057613        -1.522892
 O         1.797591         0.492100        -1.348775
 C         2.596049         0.441683         0.852998
 H        -0.213380        -0.404650         1.163829
 H        -0.327376         0.934037         0.458870
 H        -0.519066        -0.503093        -0.495586
 H         1.209613        -1.960401         0.630717
 H         1.944617        -1.921431        -1.056557
 H         3.576844        -2.600478         1.681118
 H         4.708030         0.595036        -0.013451
 H         3.642006         0.738187        -2.264099
 H         3.355791        -0.976139        -1.958406
 H         2.636814         1.136035         1.639711
