19
Iteration:   475charge 0 multiplicity 1
 C         0.140827         0.192570         0.281378
 C         1.533439        -0.232332        -0.139891
 C         1.934233        -1.696918        -0.038233
 C         3.230617        -1.095426         0.664107
 O         3.950423        -1.874072         1.509715
 C         3.758446         0.169094        -0.137504
 C         3.214961         0.550626        -1.538392
 O         1.771598         0.246654        -1.478966
 C         2.571524         0.265449         0.856952
 H         0.088286         0.008400         1.353314
 H        -0.001659         1.242087         0.156298
 H        -0.593748        -0.379877        -0.275473
 H         1.406494        -2.226249         0.806247
 H         1.976345        -2.354429        -0.888263
 H         4.732256        -1.373332         1.779661
 H         4.708302         0.537166         0.181308
 H         3.352734         1.594513        -1.869300
 H         3.724887        -0.109655        -2.368364
 H         2.577231         1.000988         1.614116
