19
Iteration:  3455
 C        -0.009743         0.134776         0.237401
 C         1.454794        -0.122249        -0.111635
 C         1.998378        -1.603340        -0.128229
 C         3.269356        -1.163167         0.661230
 O         4.115155        -1.820810         1.579359
 C         3.680606         0.091977        -0.142665
 C         3.230370         0.320735        -1.614377
 O         1.751854         0.534568        -1.343473
 C         2.627004         0.257884         0.887155
 H        -0.301885        -0.470580         1.137405
 H        -0.092843         1.135044         0.584465
 H        -0.692727        -0.217595        -0.536109
 H         1.282831        -2.249147         0.373208
 H         2.105178        -2.168120        -1.108217
 H         4.715448        -2.436771         1.096216
 H         4.740983         0.252095         0.117749
 H         3.743504         1.172267        -2.092973
 H         3.092999        -0.634559        -2.178047
 H         2.664384         0.958884         1.740714
