19
Iteration:  2773
 C         0.071303         0.295171         0.318182
 C         1.439217        -0.233266        -0.074405
 C         1.931731        -1.712054         0.071380
 C         3.208056        -1.142506         0.645341
 O         4.115631        -1.821180         1.376439
 C         3.735898         0.182161        -0.126009
 C         3.217617         0.529479        -1.536509
 O         1.834088         0.185360        -1.509739
 C         2.615706         0.264666         0.817597
 H        -0.017537        -0.048641         1.380001
 H         0.037329         1.429705         0.312838
 H        -0.719150         0.135006        -0.430406
 H         1.193817        -2.269137         0.717255
 H         2.034707        -2.415181        -0.756364
 H         3.639885        -2.155645         2.158066
 H         4.823878         0.551048         0.015789
 H         3.222676         1.613051        -1.727055
 H         3.709092        -0.059137        -2.332677
 H         2.392492         0.927435         1.764206
