19
Iteration:  2086charge 0 multiplicity 1
 C        -0.160057         0.235516         0.068260
 C         1.395855        -0.102277        -0.046549
 C         1.870171        -1.542778         0.141391
 C         3.332968        -1.130285         0.606706
 O         4.217828        -1.862562         1.328053
 C         3.792028         0.102779        -0.082250
 C         3.196984         0.212072        -1.472761
 O         1.815867         0.410643        -1.324515
 C         2.656139         0.304579         0.902893
 H        -0.663375        -0.172203         0.925102
 H        -0.488408         1.253712        -0.104311
 H        -0.725112        -0.409764        -0.727640
 H         1.387400        -2.083430         0.924877
 H         1.907800        -2.055534        -0.847885
 H         4.580829        -2.586203         0.757417
 H         4.785859         0.644312         0.134504
 H         3.569031         1.105409        -1.953894
 H         3.359027        -0.759437        -2.000940
 H         2.885091         1.092317         1.797180
