19
Iteration:  2029charge 0 multiplicity 1
 C         0.000435         0.284755         0.501741
 C         1.454766        -0.195088        -0.150915
 C         1.962957        -1.622170        -0.038404
 C         3.292936        -1.153676         0.582511
 O         4.005931        -1.815017         1.632944
 C         3.789011         0.058020        -0.176000
 C         3.244770         0.434299        -1.552722
 O         1.771048         0.302021        -1.553828
 C         2.573269         0.247597         0.747085
 H        -0.001336        -0.250934         1.484499
 H         0.016270         1.389480         0.566850
 H        -0.883188        -0.023501        -0.149475
 H         1.387815        -2.188908         0.749651
 H         1.897142        -2.339481        -0.953247
 H         4.897749        -2.035276         1.330727
 H         4.835804         0.356531        -0.047972
 H         3.435162         1.445180        -1.797454
 H         3.611397        -0.004530        -2.543040
 H         2.687205         0.958374         1.499739
