19
Iteration:   925
 C         0.026194         0.206660         0.346558
 C         1.489143        -0.264598        -0.176331
 C         2.003172        -1.688674        -0.040154
 C         3.234653        -1.053755         0.650411
 O         4.062924        -1.826757         1.462385
 C         3.728130         0.104706        -0.146797
 C         3.216521         0.447441        -1.580046
 O         1.814997         0.289910        -1.430803
 C         2.619558         0.350268         0.851752
 H         0.009418         0.021462         1.444828
 H         0.025325         1.325663         0.289895
 H        -0.883119        -0.283774        -0.140480
 H         1.330333        -2.174136         0.689732
 H         2.049304        -2.152651        -1.069862
 H         3.559558        -2.476452         1.972369
 H         4.679474         0.510596         0.190389
 H         3.427580         1.536886        -1.746349
 H         3.584141        -0.324903        -2.244083
 H         2.508969         1.127162         1.602557
