19
Iteration:  1456
 C         0.047937         0.105243         0.309678
 C         1.486596        -0.083163        -0.145143
 C         1.944297        -1.537964        -0.055471
 C         3.236719        -1.071400         0.658564
 O         4.072687        -1.837123         1.455286
 C         3.729377         0.029374        -0.155617
 C         3.226548         0.242307        -1.597063
 O         1.835697         0.454906        -1.376246
 C         2.572131         0.262123         0.864491
 H         0.090803        -0.315144         1.334596
 H        -0.303575         1.132487         0.241339
 H        -0.627679        -0.510064        -0.307038
 H         1.310638        -2.001080         0.696589
 H         2.042176        -2.209475        -0.942340
 H         3.876317        -1.700994         2.392474
 H         4.648796         0.429986         0.173434
 H         3.611668         1.123592        -2.253095
 H         3.426828        -0.679109        -2.131292
 H         2.610467         1.238432         1.340291
