19
Iteration:   832
 C         0.062099         0.146450         0.243616
 C         1.487852        -0.115682        -0.109260
 C         1.941027        -1.651036         0.042853
 C         3.223285        -1.101409         0.653632
 O         4.111634        -1.815652         1.445049
 C         3.696087         0.154710        -0.160211
 C         3.276512         0.431531        -1.531645
 O         1.761664         0.313144        -1.434515
 C         2.663361         0.251527         0.841811
 H        -0.204810        -0.247132         1.235985
 H        -0.220502         1.187101         0.318193
 H        -0.488986        -0.403941        -0.458965
 H         1.193287        -2.007893         0.815774
 H         2.025951        -2.233058        -0.921576
 H         3.476664        -2.427136         1.880762
 H         4.646381         0.586128         0.043389
 H         3.411094         1.408454        -1.945523
 H         3.438650        -0.411340        -2.171725
 H         2.695177         0.946244         1.628272
