19
Iteration:  1749
 C         0.071721         0.215926         0.151764
 C         1.467352        -0.196155        -0.081442
 C         1.890150        -1.650739         0.107940
 C         3.207032        -1.085397         0.643965
 O         4.175362        -1.849850         1.391293
 C         3.770939         0.066687        -0.154133
 C         3.188507         0.458554        -1.526899
 O         1.756538         0.285487        -1.381399
 C         2.646023         0.296843         0.818275
 H        -0.367819         0.039908         1.116791
 H         0.126281         1.292148         0.033767
 H        -0.599720        -0.169726        -0.613614
 H         1.328977        -1.962755         1.045503
 H         1.902432        -2.459167        -0.662259
 H         3.745127        -2.213364         2.185048
 H         4.763797         0.437758         0.250066
 H         3.401449         1.524420        -1.752791
 H         3.420897        -0.131343        -2.456080
 H         2.614135         1.145013         1.542433
