19
Iteration:  4929
 C        -0.023059         0.234231         0.140599
 C         1.398451        -0.061204        -0.041406
 C         1.968760        -1.598789         0.040426
 C         3.239346        -1.057787         0.672375
 O         4.161799        -1.902352         1.362619
 C         3.781650         0.081258        -0.167175
 C         3.188475         0.113540        -1.532507
 O         1.779878         0.475824        -1.340198
 C         2.710406         0.318900         0.867848
 H        -0.516521        -0.081963         1.018812
 H        -0.299096         1.299074         0.207723
 H        -0.655441        -0.137891        -0.759081
 H         1.318020        -2.050635         0.765995
 H         1.843244        -2.083049        -0.872291
 H         3.731627        -1.984241         2.231693
 H         4.797563         0.554316        -0.015690
 H         3.817953         0.721890        -2.219854
 H         3.121434        -0.893832        -1.935432
 H         2.755787         0.871831         1.821620
