19
Iteration:  3992
 C         0.045090         0.134538         0.291231
 C         1.501602        -0.102816        -0.141593
 C         2.036258        -1.652706        -0.147794
 C         3.189919        -1.150547         0.656223
 O         3.991645        -1.786684         1.505027
 C         3.793403         0.047061        -0.171578
 C         3.148192         0.247026        -1.468871
 O         1.756654         0.568351        -1.311283
 C         2.687559         0.291370         0.842927
 H        -0.084753        -0.050446         1.292775
 H        -0.255562         1.172128         0.244792
 H        -0.615635        -0.560459        -0.197161
 H         1.333219        -2.426345         0.311835
 H         2.236102        -2.250921        -1.147376
 H         4.412100        -2.500089         0.989956
 H         4.797514         0.379011         0.190331
 H         3.646738         1.121205        -2.067467
 H         3.135925        -0.516127        -2.266485
 H         2.734128         1.119325         1.598144
