19
Iteration:  1293charge 0 multiplicity 1
 C         0.050641         0.099738         0.269345
 C         1.483967        -0.102091        -0.147877
 C         1.956663        -1.593301        -0.019234
 C         3.260615        -1.131452         0.620326
 O         4.071616        -1.816874         1.522743
 C         3.738804         0.049388        -0.184315
 C         3.201387         0.372442        -1.520629
 O         1.779790         0.433826        -1.384506
 C         2.662549         0.249697         0.777024
 H         0.107019         0.076754         1.342493
 H        -0.316520         1.091860        -0.072352
 H        -0.604575        -0.681346        -0.195688
 H         1.243997        -2.032959         0.739000
 H         1.996833        -2.254798        -0.952045
 H         3.507306        -2.045620         2.300903
 H         4.724348         0.571302         0.014628
 H         3.435241         1.371226        -1.911959
 H         3.468884        -0.392025        -2.351781
 H         2.705380         0.842431         1.702541
