19
Iteration:  1037
 C        -0.109159         0.159431         0.095226
 C         1.411876        -0.098878        -0.088032
 C         2.111077        -1.638341         0.025447
 C         3.288816        -1.062768         0.689499
 O         4.206269        -1.845689         1.292972
 C         3.660617         0.203378        -0.119482
 C         3.212911         0.120694        -1.448553
 O         1.811034         0.468132        -1.316352
 C         2.581316         0.345658         0.920371
 H        -0.724908        -0.476642         0.834336
 H        -0.142104         1.128823         0.628431
 H        -0.682004         0.055962        -0.821666
 H         1.556364        -2.189466         0.821482
 H         2.110295        -2.222654        -0.889392
 H         3.580948        -2.523191         1.669429
 H         4.728303         0.398827         0.143816
 H         3.517910         0.845210        -2.180073
 H         3.258531        -0.889970        -1.805225
 H         2.780766         1.322852         1.445474
