19
Iteration:  2266
 C         0.022899         0.231383         0.096995
 C         1.448567        -0.199963        -0.033200
 C         1.908400        -1.651065         0.138782
 C         3.247520        -1.069258         0.681253
 O         4.198272        -1.850294         1.358370
 C         3.688242         0.032144        -0.164641
 C         3.188425         0.317299        -1.530193
 O         1.810537         0.458809        -1.300211
 C         2.570110         0.274323         0.874739
 H        -0.471590         0.183877         1.098907
 H         0.011867         1.275686        -0.320632
 H        -0.617848        -0.395279        -0.600922
 H         1.191094        -2.129996         0.894858
 H         1.907566        -2.128132        -0.801921
 H         4.791666        -2.187871         0.651797
 H         4.806062         0.365794         0.067809
 H         3.643958         1.325532        -1.870560
 H         3.310521        -0.587113        -2.165519
 H         2.538143         1.072167         1.726497
