19
Iteration:  1470
 C         0.001975         0.091432         0.246547
 C         1.442368        -0.068108        -0.123433
 C         1.967492        -1.556406        -0.018200
 C         3.225254        -1.096143         0.693072
 O         4.159619        -1.867040         1.383712
 C         3.771198         0.152273        -0.088488
 C         3.190121         0.085363        -1.517331
 O         1.798675         0.542728        -1.457535
 C         2.606511         0.341420         0.856136
 H        -0.337125        -0.082870         1.236436
 H        -0.267573         1.140815         0.175707
 H        -0.643752        -0.592475        -0.364906
 H         1.259922        -2.112786         0.700478
 H         1.968326        -2.136909        -1.009494
 H         3.922413        -1.946889         2.338614
 H         4.767751         0.534816         0.189967
 H         3.782692         0.738742        -2.163208
 H         3.176592        -0.897053        -1.960990
 H         2.725936         0.904645         1.816595
