19
Iteration:  1533charge 0 multiplicity 1
 C        -0.023659         0.311716         0.252838
 C         1.454276        -0.114694        -0.135014
 C         1.890139        -1.726063         0.176316
 C         3.158697        -1.128524         0.614745
 O         4.176850        -1.809144         1.447738
 C         3.751073         0.111954        -0.148953
 C         3.191053         0.533592        -1.587053
 O         1.866692         0.142064        -1.445329
 C         2.656835         0.256586         0.784415
 H        -0.128382         0.008521         1.309520
 H         0.007536         1.444494         0.216992
 H        -0.595373        -0.135877        -0.593042
 H         1.251021        -1.934115         1.012633
 H         1.842134        -2.473732        -0.612813
 H         3.764935        -2.574216         1.900050
 H         4.808135         0.302482         0.181895
 H         3.141476         1.715028        -1.749926
 H         3.672614         0.129587        -2.497108
 H         2.745344         0.996634         1.665406
