19
Iteration:  1558charge 0 multiplicity 1
 C         0.161270         0.313811         0.342049
 C         1.439289        -0.203679        -0.113066
 C         1.915624        -1.689126         0.112257
 C         3.231508        -1.072231         0.508888
 O         4.069864        -1.778143         1.429834
 C         3.758684         0.099234        -0.124480
 C         3.182683         0.496293        -1.441518
 O         1.825195         0.075634        -1.562013
 C         2.556225         0.286169         0.809731
 H         0.101328        -0.028030         1.382369
 H         0.291846         1.461097         0.475371
 H        -0.549347        -0.104162        -0.476503
 H         1.422412        -2.224109         1.021276
 H         1.711704        -2.158039        -0.910612
 H         3.529871        -1.923232         2.244973
 H         4.873990         0.233118        -0.029256
 H         3.300306         1.687369        -1.498537
 H         3.705538         0.150041        -2.344338
 H         2.490308         1.115099         1.477911
