19
Iteration:  3750charge 0 multiplicity 1
 C        -0.011969         0.199039         0.183882
 C         1.453449        -0.110958        -0.019520
 C         1.965932        -1.600349         0.013754
 C         3.247457        -1.078533         0.692805
 O         4.091879        -1.964229         1.304045
 C         3.782355         0.099603        -0.090225
 C         3.178104         0.316573        -1.540260
 O         1.780448         0.444236        -1.377683
 C         2.590814         0.282460         0.919384
 H        -0.425551        -0.426429         0.974678
 H        -0.384547         1.231071         0.464328
 H        -0.394746        -0.043505        -0.830347
 H         1.474121        -2.127362         0.929802
 H         1.977402        -2.112823        -0.970112
 H         4.999008        -1.837110         0.982604
 H         4.791166         0.523835         0.360252
 H         3.549225         1.221502        -1.991458
 H         3.657677        -0.630363        -2.028540
 H         2.461426         0.974535         1.736198
