19
Iteration:  3975
 C         0.140263         0.123584         0.441504
 C         1.504567        -0.154356        -0.126021
 C         1.972546        -1.652382        -0.112243
 C         3.158921        -1.124967         0.625861
 O         3.938192        -1.817974         1.589904
 C         3.730383         0.028828        -0.195316
 C         3.236787         0.435273        -1.629863
 O         1.787010         0.503430        -1.409068
 C         2.618880         0.253790         0.826264
 H         0.128362        -0.224488         1.584521
 H        -0.070621         1.155948         0.079880
 H        -0.679211        -0.544154         0.044450
 H         1.318623        -2.341248         0.369366
 H         2.098856        -2.106761        -1.095051
 H         4.682561        -2.168763         1.074596
 H         4.809326         0.211318         0.105088
 H         3.678956         1.338290        -1.954310
 H         3.676749        -0.238811        -2.425707
 H         2.535601         0.791018         1.733189
