19
Iteration:  3143
 C        -0.058443         0.170420         0.037319
 C         1.420537        -0.120717        -0.082303
 C         1.900872        -1.622645         0.116009
 C         3.305493        -1.182023         0.582157
 O         4.233324        -1.946144         1.384993
 C         3.734221         0.001624        -0.126534
 C         3.171623         0.405555        -1.452439
 O         1.789186         0.459548        -1.292512
 C         2.567701         0.334862         0.896603
 H        -0.483716         0.020224         1.041362
 H        -0.243624         1.198789        -0.213326
 H        -0.624259        -0.192761        -0.872167
 H         1.377524        -1.985847         1.122745
 H         1.678888        -2.327288        -0.761322
 H         5.121058        -1.714837         1.054842
 H         4.686492         0.629502         0.127519
 H         3.639381         1.461252        -1.736980
 H         3.467381        -0.332455        -2.268055
 H         2.658028         0.925646         1.748169
