19
Iteration:  1885charge 0 multiplicity 1
 C         0.066794         0.316875         0.219645
 C         1.461670        -0.134234        -0.129688
 C         1.921584        -1.678150         0.138247
 C         3.251781        -1.155935         0.655922
 O         4.123911        -1.964532         1.323925
 C         3.785881         0.160219        -0.138974
 C         3.186205         0.557959        -1.457074
 O         1.810230         0.094492        -1.478142
 C         2.523705         0.345849         0.810215
 H        -0.046328         0.011758         1.330799
 H         0.078651         1.471527         0.458694
 H        -0.733953        -0.104505        -0.452098
 H         1.292734        -1.954030         1.064095
 H         1.779037        -2.455451        -0.712749
 H         4.173771        -1.806634         2.288947
 H         4.818937         0.483817         0.169338
 H         3.206602         1.640372        -1.577515
 H         3.787925         0.125989        -2.371005
 H         2.468172         1.285547         1.441124
