19
Iteration:  3824charge 0 multiplicity 1
 C         0.034574         0.095751         0.436390
 C         1.481288        -0.150878        -0.128134
 C         1.999830        -1.622580        -0.137190
 C         3.260466        -1.106700         0.618509
 O         3.859598        -1.944202         1.619346
 C         3.904727         0.102829        -0.269780
 C         3.208815         0.466432        -1.619964
 O         1.767380         0.493925        -1.366712
 C         2.631757         0.215536         0.777552
 H        -0.074935        -0.061569         1.536568
 H        -0.265066         1.109389         0.381508
 H        -0.576615        -0.506034        -0.183550
 H         1.402934        -2.364600         0.565087
 H         2.050503        -2.108249        -1.149721
 H         4.819691        -1.914234         1.447960
 H         4.878918         0.645680         0.062563
 H         3.680564         1.492675        -1.665082
 H         3.426165        -0.264745        -2.380532
 H         2.500210         0.918755         1.582328
