19
Iteration:  3579
 C        -0.052736         0.130460         0.158754
 C         1.407601        -0.052594        -0.101101
 C         1.927603        -1.603120         0.010915
 C         3.319774        -1.130443         0.569373
 O         4.140151        -1.910571         1.486460
 C         3.771374         0.137203        -0.124980
 C         3.173565         0.246583        -1.482054
 O         1.800421         0.559321        -1.340879
 C         2.601100         0.238032         0.875395
 H        -0.386231        -0.496385         0.924114
 H        -0.146871         1.223729         0.292969
 H        -0.705810        -0.120517        -0.699117
 H         1.535933        -2.053295         0.940435
 H         1.803825        -2.427011        -0.841489
 H         4.902209        -2.072522         0.899567
 H         4.799565         0.555041         0.149593
 H         3.528154         1.068180        -2.165056
 H         3.384288        -0.583165        -2.194135
 H         2.596319         0.689486         1.861718
