19
Iteration:  4660charge 0 multiplicity 1
 C         0.012984         0.234857         0.162450
 C         1.450365        -0.108296         0.004568
 C         1.917000        -1.659965         0.039544
 C         3.241227        -1.099691         0.659254
 O         4.069263        -1.996701         1.390145
 C         3.788676         0.196449        -0.175051
 C         3.201963         0.283678        -1.613920
 O         1.800529         0.411035        -1.342928
 C         2.675774         0.317508         0.911238
 H        -0.501730        -0.352784         0.888878
 H        -0.152499         1.308110         0.246946
 H        -0.684833         0.041824        -0.760109
 H         1.338880        -2.253188         0.862602
 H         1.991118        -2.188977        -0.931839
 H         4.404305        -1.487105         2.158856
 H         4.818622         0.281557        -0.021630
 H         3.372715         1.202446        -2.068250
 H         3.564772        -0.531232        -2.259853
 H         2.618768         1.119459         1.639880
