19
Iteration:  2664
 C        -0.091479         0.196403         0.216009
 C         1.391293        -0.191819        -0.049388
 C         1.962340        -1.587197         0.055905
 C         3.290821        -1.051231         0.620869
 O         4.176798        -1.863673         1.353836
 C         3.760454         0.066752        -0.139285
 C         3.224641         0.306526        -1.504438
 O         1.809328         0.341612        -1.396584
 C         2.634436         0.358470         0.818432
 H        -0.540015        -0.216813         1.134194
 H        -0.023465         1.271305         0.321646
 H        -0.733524        -0.234428        -0.537985
 H         1.513656        -2.105120         0.998206
 H         1.985717        -2.194793        -0.905034
 H         3.717103        -2.045904         2.195471
 H         4.701353         0.493105         0.118345
 H         3.630626         1.319918        -1.781119
 H         3.446541        -0.503138        -2.246656
 H         2.601630         1.140392         1.528726
