19
Iteration:  2369charge 0 multiplicity 1
 C         0.052207         0.091737         0.275728
 C         1.471430        -0.069648        -0.060692
 C         1.918577        -1.615433        -0.082371
 C         3.222517        -1.108882         0.639880
 O         4.080143        -1.735650         1.556977
 C         3.783748         0.034739        -0.206046
 C         3.158234         0.272510        -1.556788
 O         1.762640         0.510719        -1.329058
 C         2.704690         0.255462         0.782006
 H        -0.165089        -0.507327         1.193267
 H        -0.271541         1.157214         0.436930
 H        -0.431183        -0.419271        -0.673367
 H         1.434305        -2.285899         0.596336
 H         2.041998        -2.086848        -1.116490
 H         3.865125        -2.687507         1.618235
 H         4.817501         0.372326        -0.061790
 H         3.592028         1.114957        -2.168940
 H         3.304469        -0.577542        -2.240675
 H         2.732248         0.957076         1.643527
