19
Iteration:  1802
 C         0.063862         0.033961         0.249270
 C         1.480721        -0.034109        -0.115293
 C         1.967541        -1.593333        -0.030533
 C         3.153513        -1.028997         0.675058
 O         4.128653        -1.834867         1.394412
 C         3.738041         0.115543        -0.116305
 C         3.166612         0.081136        -1.505639
 O         1.821821         0.532118        -1.351533
 C         2.616506         0.429182         0.808515
 H         0.117234        -0.472081         1.188257
 H        -0.197518         1.027943         0.326362
 H        -0.672826        -0.425656        -0.323240
 H         1.328348        -2.270488         0.485864
 H         2.252905        -2.097626        -0.922979
 H         3.674143        -2.562283         1.847528
 H         4.845369         0.280997         0.019247
 H         3.650150         0.851276        -2.180269
 H         3.199002        -0.827655        -2.024576
 H         2.498484         1.065202         1.682325
