19
Iteration:  4611charge 0 multiplicity 1
 C         0.008114         0.154095         0.153902
 C         1.443282        -0.120904        -0.118396
 C         1.904953        -1.579583         0.140647
 C         3.198556        -1.120042         0.720319
 O         4.124010        -2.022836         1.365050
 C         3.680245         0.087642        -0.137740
 C         3.230014         0.276246        -1.566662
 O         1.867664         0.507706        -1.314057
 C         2.635838         0.412644         0.859859
 H        -0.345974        -0.286950         1.168863
 H        -0.295389         1.204926        -0.108093
 H        -0.741798        -0.407791        -0.540602
 H         1.139885        -2.022660         0.693711
 H         1.946087        -2.109980        -0.810124
 H         4.965805        -1.775744         0.954632
 H         4.653232         0.505363         0.243472
 H         3.631137         1.155020        -2.236245
 H         3.450800        -0.788794        -2.039774
 H         2.659820         1.195796         1.608890
