19
Iteration:  4028charge 0 multiplicity 1
 C        -0.045525         0.171565         0.092422
 C         1.476078        -0.095535        -0.047580
 C         1.917932        -1.630171         0.140871
 C         3.288577        -1.089188         0.607496
 O         4.115994        -1.888965         1.425833
 C         3.763483         0.132112        -0.169030
 C         3.174711         0.325075        -1.613916
 O         1.776396         0.507548        -1.324306
 C         2.702780         0.193836         0.956828
 H        -0.362620        -0.473765         0.896234
 H        -0.364009         1.200832         0.165887
 H        -0.497399        -0.143060        -0.843065
 H         1.342892        -1.876615         1.001330
 H         1.845900        -2.277961        -0.827644
 H         4.175816        -2.774602         1.042177
 H         4.681204         0.681743         0.123077
 H         3.621000         1.203426        -1.998481
 H         3.354298        -0.625866        -2.186791
 H         2.732952         0.852868         1.770826
