19
Iteration:  3641
 C         0.122383         0.097962         0.496301
 C         1.482424        -0.156023        -0.139855
 C         2.022542        -1.689523        -0.182673
 C         3.271789        -1.166805         0.524477
 O         3.860004        -1.783844         1.687452
 C         3.807569         0.124929        -0.202660
 C         3.176782         0.499012        -1.569637
 O         1.772210         0.482304        -1.465361
 C         2.662956         0.143443         0.774817
 H        -0.004173        -0.279964         1.559951
 H         0.196017         1.201560         0.701169
 H        -0.807639        -0.247717        -0.087520
 H         1.480493        -2.428311         0.341897
 H         2.124129        -2.025853        -1.163026
 H         4.058814        -2.727328         1.548937
 H         4.734784         0.646939         0.091381
 H         3.479274         1.508518        -1.842793
 H         3.556946        -0.242127        -2.287081
 H         2.642846         0.936762         1.540348
