19
Iteration:  1575charge 0 multiplicity 1
 C         0.106132         0.318922         0.325276
 C         1.496661        -0.190695        -0.127683
 C         1.940027        -1.685997        -0.011635
 C         3.212231        -1.120006         0.625155
 O         4.089269        -1.811073         1.476082
 C         3.718005         0.116556        -0.145995
 C         3.208150         0.474417        -1.565394
 O         1.760101         0.149081        -1.472914
 C         2.651822         0.282458         0.812087
 H        -0.047524        -0.052818         1.348310
 H        -0.019040         1.364460         0.255028
 H        -0.749958         0.096583        -0.271342
 H         1.292017        -2.116439         0.694176
 H         2.108935        -2.326716        -0.855556
 H         3.838152        -1.785304         2.428500
 H         4.627966         0.630323         0.213369
 H         3.388181         1.476399        -1.842823
 H         3.580021        -0.167970        -2.396872
 H         2.538861         0.862382         1.790742
