19
Iteration:  2167charge 0 multiplicity 1
 C         0.123678         0.252464         0.506314
 C         1.438230        -0.210124        -0.147232
 C         2.010135        -1.747897        -0.218192
 C         3.252175        -1.203841         0.509071
 O         3.895754        -1.658992         1.732812
 C         3.787655         0.008489        -0.229008
 C         3.206180         0.491507        -1.550040
 O         1.763759         0.450281        -1.447781
 C         2.627440         0.084773         0.765286
 H         0.001432        -0.203581         1.550125
 H        -0.013209         1.380685         0.585105
 H        -0.733610         0.024081        -0.072186
 H         1.652066        -2.565464         0.432158
 H         2.119153        -2.183491        -1.127394
 H         4.683691        -2.226934         1.546725
 H         4.754204         0.547785        -0.053650
 H         3.611369         1.528910        -1.857633
 H         3.584517        -0.151879        -2.288966
 H         2.571523         0.835436         1.459350
