19
Iteration:  2835charge 0 multiplicity 1
 C        -0.078334         0.162598         0.136462
 C         1.459480        -0.097833         0.001898
 C         1.966273        -1.657208         0.119789
 C         3.276917        -1.042747         0.607620
 O         4.143790        -1.853426         1.290649
 C         3.766169         0.103796        -0.160226
 C         3.206767         0.262291        -1.569750
 O         1.824277         0.463900        -1.355910
 C         2.584325         0.278531         0.966416
 H        -0.267983        -0.243159         1.142228
 H        -0.393577         1.203193         0.131728
 H        -0.761583        -0.404222        -0.670162
 H         1.403325        -2.117018         0.952218
 H         2.154136        -2.326762        -0.769680
 H         3.672029        -2.316835         2.001378
 H         4.837856         0.437112         0.134062
 H         3.722861         1.118432        -2.116903
 H         3.509703        -0.503333        -2.327902
 H         2.601177         1.027631         1.703973
