19
Iteration:  3351charge 0 multiplicity 1
 C         0.033717         0.277219         0.257635
 C         1.440211        -0.164168        -0.107414
 C         1.843075        -1.736325         0.048491
 C         3.271598        -1.194671         0.524411
 O         4.116892        -1.849255         1.490552
 C         3.717226         0.155884        -0.078626
 C         3.260255         0.630016        -1.510264
 O         1.830730         0.248851        -1.411423
 C         2.561064         0.178090         0.800693
 H        -0.033867         0.392042         1.323813
 H        -0.172892         1.307743        -0.253720
 H        -0.725376        -0.293282        -0.310923
 H         1.491731        -2.072075         0.996819
 H         1.713742        -2.413910        -0.728464
 H         4.924951        -2.116772         1.010974
 H         4.654003         0.432178         0.230135
 H         3.299892         1.700684        -1.843839
 H         3.821452         0.082397        -2.375896
 H         2.477697         0.575436         1.833439
