19
Iteration:  2461
 C         0.109039         0.224821         0.282981
 C         1.489997        -0.196850        -0.094710
 C         1.830139        -1.680269         0.090907
 C         3.167006        -1.146235         0.577336
 O         4.139427        -1.833399         1.409163
 C         3.770931         0.161190        -0.155665
 C         3.186241         0.593539        -1.517103
 O         1.828370         0.167442        -1.496903
 C         2.642959         0.271456         0.846270
 H        -0.174750         0.064822         1.370904
 H         0.056109         1.353172         0.164683
 H        -0.654152        -0.234956        -0.316592
 H         1.338175        -2.095528         0.990876
 H         1.774577        -2.340063        -0.834538
 H         3.682551        -2.045643         2.247120
 H         4.736332         0.401887         0.192806
 H         3.294358         1.638727        -1.763217
 H         3.670666         0.108696        -2.369711
 H         2.583056         0.811444         1.715679
