19
Iteration:  3084
 C         0.054292         0.100173         0.487495
 C         1.442352        -0.086262        -0.175224
 C         2.059322        -1.656095        -0.112620
 C         3.265516        -1.095411         0.644810
 O         3.914926        -1.952452         1.495816
 C         3.824428         0.075339        -0.133921
 C         3.284551         0.421096        -1.517557
 O         1.721203         0.425864        -1.504880
 C         2.587597         0.335323         0.773729
 H        -0.246104        -0.549843         1.331675
 H        -0.009408         1.175823         0.852223
 H        -0.670188        -0.298177        -0.242709
 H         1.683506        -2.460194         0.414668
 H         2.272565        -2.068851        -1.096709
 H         4.493702        -1.398105         2.071310
 H         4.716429         0.546911         0.128904
 H         3.617030         1.368978        -1.913647
 H         3.352466        -0.517538        -2.158110
 H         2.527622         1.241971         1.515907
