19
Iteration:   489charge 0 multiplicity 1
 C         0.113896         0.198518         0.301292
 C         1.467581        -0.186112        -0.128564
 C         1.935801        -1.719632         0.039878
 C         3.214647        -1.195359         0.630215
 O         4.049915        -1.920469         1.601401
 C         3.774220         0.193889        -0.166882
 C         3.169230         0.637350        -1.556096
 O         1.767439         0.215018        -1.553435
 C         2.688630         0.262923         0.798629
 H        -0.227504        -0.185736         1.212800
 H         0.184685         1.254674         0.311785
 H        -0.684968         0.025634        -0.454880
 H         1.097800        -2.340813         0.630189
 H         2.058379        -2.103048        -1.026432
 H         4.211111        -1.311314         2.370363
 H         4.805032         0.468380         0.075368
 H         3.235249         1.778704        -1.617551
 H         3.627629         0.072487        -2.433176
 H         2.389271         1.060348         1.504594
