19
Iteration:  3889charge 0 multiplicity 1
 C        -0.089579         0.290463         0.101626
 C         1.388915        -0.146531        -0.068272
 C         1.915893        -1.673361         0.113123
 C         3.312972        -1.138165         0.556444
 O         4.255314        -1.873292         1.342224
 C         3.684536         0.087888        -0.097679
 C         3.228923         0.310452        -1.454377
 O         1.840639         0.473722        -1.392788
 C         2.552570         0.230584         0.992186
 H        -0.585425        -0.142509         1.103076
 H        -0.124891         1.400934         0.157392
 H        -0.732440         0.157520        -0.786741
 H         1.443614        -2.066699         1.061343
 H         1.880068        -2.257900        -0.789133
 H         4.559167        -2.595424         0.766816
 H         4.798022         0.312308         0.141689
 H         3.495669         1.381238        -1.866132
 H         3.431520        -0.558049        -2.085608
 H         2.515333         0.976221         1.758263
