19
Iteration:  1348charge 0 multiplicity 1
 C        -0.001619         0.167438         0.088854
 C         1.424496        -0.077117        -0.055956
 C         1.843059        -1.574241         0.105619
 C         3.279745        -1.124496         0.673179
 O         4.282224        -1.868198         1.227280
 C         3.744733         0.195291        -0.014251
 C         3.271091         0.157820        -1.490498
 O         1.779209         0.388179        -1.377768
 C         2.572470         0.388502         0.947268
 H        -0.505301         0.038747         1.054252
 H        -0.281058         1.206545        -0.143950
 H        -0.582252        -0.314942        -0.717471
 H         1.146054        -2.052123         0.893138
 H         1.730739        -2.305305        -0.799363
 H         3.886622        -2.557951         1.791400
 H         4.780165         0.437616         0.250806
 H         3.577179         0.918416        -2.183535
 H         3.414651        -0.841073        -1.921260
 H         2.396580         1.306696         1.498461
