19
Iteration:  4056
 C         0.001800         0.223571         0.205384
 C         1.467108        -0.159260        -0.045324
 C         1.848539        -1.643875         0.113861
 C         3.191067        -1.083020         0.659913
 O         4.131948        -1.875361         1.375396
 C         3.769403         0.007205        -0.153311
 C         3.222633         0.498278        -1.519905
 O         1.841300         0.251735        -1.407897
 C         2.639694         0.346912         0.832957
 H        -0.475660        -0.291276         1.104620
 H        -0.103985         1.333185         0.537045
 H        -0.487935         0.034088        -0.800469
 H         1.192461        -2.060387         0.940067
 H         1.842346        -2.142038        -0.803403
 H         4.453234        -2.538453         0.744973
 H         4.779917         0.400432         0.213556
 H         3.523742         1.613629        -1.432254
 H         3.628141         0.007633        -2.392689
 H         2.536224         1.084711         1.652349
