19
Iteration:  2684charge 0 multiplicity 1
 C        -0.045196         0.129875         0.119978
 C         1.448168        -0.085426        -0.039469
 C         1.948534        -1.666834         0.066737
 C         3.265412        -1.072100         0.600757
 O         4.162565        -1.812283         1.413606
 C         3.805250         0.102807        -0.167838
 C         3.178564         0.219696        -1.619122
 O         1.760567         0.538803        -1.307445
 C         2.684034         0.276871         0.900173
 H        -0.377472        -0.321247         1.081933
 H        -0.494833         1.108934         0.098733
 H        -0.559230        -0.552097        -0.713558
 H         1.261067        -2.082166         0.894855
 H         1.938370        -2.268764        -0.830951
 H         3.866080        -2.060265         2.298590
 H         4.810664         0.364065        -0.029425
 H         3.476573         1.041086        -2.174627
 H         3.267671        -0.780026        -1.995364
 H         2.772971         0.829195         1.701411
