19
Iteration:  4375
 C         0.081535         0.265661         0.400129
 C         1.500348        -0.138390        -0.096529
 C         2.063615        -1.681715        -0.080164
 C         3.213564        -1.123523         0.742212
 O         3.928670        -1.925917         1.553737
 C         3.763189         0.016609        -0.197608
 C         3.206538         0.497409        -1.576489
 O         1.703813         0.337221        -1.532730
 C         2.663969         0.304909         0.824211
 H        -0.151028        -0.339396         1.193676
 H         0.216742         1.320555         0.376896
 H        -0.627954         0.117133        -0.447399
 H         1.421447        -2.373307         0.593424
 H         2.104141        -2.216434        -1.022043
 H         4.834784        -1.651367         1.785979
 H         4.822485         0.264536        -0.149632
 H         3.302389         1.547962        -1.732604
 H         3.588436        -0.177185        -2.413819
 H         2.585536         0.976698         1.657213
