19
Iteration:  4492
 C        -0.012477         0.180639         0.189417
 C         1.479145        -0.091847        -0.050399
 C         1.888413        -1.590622         0.018672
 C         3.269363        -1.077325         0.582945
 O         4.023658        -1.847211         1.413746
 C         3.793924         0.089247        -0.134390
 C         3.224681         0.188088        -1.533902
 O         1.827494         0.473721        -1.330379
 C         2.646743         0.296549         0.920344
 H        -0.331467        -0.526089         1.032908
 H        -0.352540         1.231646         0.266252
 H        -0.670019        -0.131531        -0.694315
 H         1.369611        -2.183075         0.820630
 H         1.721478        -2.142188        -0.946380
 H         4.868333        -2.047643         0.959699
 H         4.776026         0.424336        -0.028290
 H         3.602074         1.023129        -2.073935
 H         3.410525        -0.748012        -2.007958
 H         2.650506         0.895065         1.798172
