19
Iteration:  3715charge 0 multiplicity 1
 C        -0.129557         0.228734         0.031481
 C         1.391628        -0.127721         0.016082
 C         1.912434        -1.607185         0.153878
 C         3.303357        -1.079728         0.616039
 O         4.180308        -1.977060         1.251263
 C         3.749601         0.102022        -0.042535
 C         3.218927         0.337322        -1.441200
 O         1.815547         0.473349        -1.349298
 C         2.644167         0.271831         0.923600
 H        -0.676933        -0.279008         0.844129
 H        -0.323722         1.245803        -0.132036
 H        -0.584430        -0.341017        -0.758171
 H         1.424610        -2.181420         1.093505
 H         1.697419        -2.346255        -0.685590
 H         4.930389        -1.999229         0.633145
 H         4.725404         0.519593         0.244506
 H         3.659501         1.237351        -1.937420
 H         3.527066        -0.595983        -2.152944
 H         2.742387         1.047272         1.703451
