19
Iteration:  4601charge 0 multiplicity 1
 C         0.043151         0.167035         0.191262
 C         1.474846        -0.122961        -0.089239
 C         1.883368        -1.610240         0.058291
 C         3.195012        -1.120212         0.722929
 O         4.085909        -1.954670         1.406158
 C         3.754739         0.061232        -0.099872
 C         3.212789         0.284766        -1.522378
 O         1.819260         0.490220        -1.373231
 C         2.594824         0.352227         0.802386
 H        -0.138349         0.154159         1.327534
 H        -0.132457         1.289136         0.085081
 H        -0.672835        -0.506522        -0.485468
 H         1.282624        -2.250070         0.667158
 H         2.115489        -2.183034        -0.806021
 H         4.869844        -1.931902         0.846453
 H         4.765156         0.523155         0.169993
 H         3.579688         1.290065        -1.921952
 H         3.451501        -0.489544        -2.348160
 H         2.628200         1.140073         1.550470
