19
Iteration:  1280
 C         0.071577         0.145633         0.427648
 C         1.478528        -0.188666        -0.125279
 C         1.967630        -1.676942        -0.067544
 C         3.206843        -1.128208         0.596303
 O         4.029009        -1.752236         1.540536
 C         3.810037         0.052921        -0.176653
 C         3.278109         0.416491        -1.607143
 O         1.732593         0.429681        -1.521768
 C         2.619035         0.233851         0.843889
 H        -0.089423        -0.040774         1.428835
 H        -0.220579         1.151839         0.197391
 H        -0.716288        -0.383821        -0.103222
 H         1.374054        -2.325076         0.675506
 H         2.056886        -2.317303        -1.045755
 H         3.530714        -1.814558         2.363190
 H         4.892213         0.238184         0.163656
 H         3.739257         1.447102        -1.672634
 H         3.693369        -0.178438        -2.418368
 H         2.514101         0.874051         1.772650
