19
Iteration:  4237
 C         0.197074         0.354006         0.330570
 C         1.458935        -0.224903        -0.144871
 C         1.869239        -1.782632        -0.014631
 C         3.191751        -1.203327         0.516523
 O         4.024297        -1.701668         1.507443
 C         3.686142         0.079887        -0.144105
 C         3.267286         0.490133        -1.465610
 O         1.804017         0.290562        -1.431494
 C         2.584944         0.216702         0.839690
 H        -0.103296        -0.080783         1.279087
 H         0.113691         1.374217         0.214142
 H        -0.630665         0.039964        -0.252758
 H         1.269068        -2.211505         0.789732
 H         1.855336        -2.442962        -0.971826
 H         4.748835        -2.234873         1.094510
 H         4.778127         0.349162         0.021031
 H         3.333467         1.649187        -1.504550
 H         3.718957        -0.132506        -2.234029
 H         2.733701         0.855756         1.704357
