19
Iteration:   217charge 0 multiplicity 1
 C         0.042767         0.260586         0.273247
 C         1.459859        -0.190404        -0.158560
 C         2.041555        -1.689631        -0.079906
 C         3.200549        -1.127333         0.642036
 O         4.016402        -1.876194         1.553162
 C         3.776122         0.105402        -0.119039
 C         3.199426         0.429946        -1.509067
 O         1.763012         0.326988        -1.428440
 C         2.574235         0.277111         0.794796
 H        -0.293971        -0.240154         1.212465
 H        -0.109183         1.321061         0.443893
 H        -0.740974         0.008874        -0.576120
 H         1.705470        -2.247236         0.756171
 H         2.258413        -2.218407        -1.010353
 H         4.887797        -1.408811         1.513157
 H         4.846389         0.261916         0.213463
 H         3.367396         1.524993        -1.713341
 H         3.644077        -0.268233        -2.296516
 H         2.561589         1.005435         1.705166
