19
Iteration:  3462charge 0 multiplicity 1
 C        -0.027929         0.135892         0.257069
 C         1.457906        -0.071779        -0.090851
 C         2.009500        -1.557373        -0.083513
 C         3.269576        -1.165012         0.632475
 O         4.107827        -1.849740         1.595298
 C         3.720863         0.052409        -0.143724
 C         3.195206         0.339796        -1.567563
 O         1.725182         0.488458        -1.377225
 C         2.630737         0.222204         0.838281
 H        -0.385134        -0.522989         1.132214
 H        -0.171264         1.296824         0.273596
 H        -0.762242        -0.210920        -0.545587
 H         1.352821        -2.265697         0.516879
 H         2.166540        -2.052176        -1.002716
 H         4.801045        -2.292664         1.060231
 H         4.854088         0.323885         0.020598
 H         3.690520         1.247835        -1.917237
 H         3.505449        -0.304082        -2.480769
 H         2.685043         0.841724         1.724857
