19
Iteration:  1640charge 0 multiplicity 1
 C        -0.077071         0.009457         0.202503
 C         1.486100        -0.031343         0.002060
 C         1.965494        -1.539916         0.043513
 C         3.293003        -1.170419         0.641948
 O         4.151071        -1.794927         1.450152
 C         3.718636         0.035011        -0.143594
 C         3.156325         0.161863        -1.656114
 O         1.849151         0.556942        -1.366480
 C         2.673258         0.442510         0.870250
 H        -0.356354        -0.500655         1.115106
 H        -0.516432         0.962206        -0.011632
 H        -0.620376        -0.524878        -0.601744
 H         1.256969        -2.039312         0.696135
 H         1.802735        -2.124997        -0.866134
 H         3.605267        -2.554888         1.710479
 H         4.811023         0.244222         0.172892
 H         3.735544         0.771400        -2.240724
 H         3.140719        -0.883030        -2.112970
 H         2.701553         1.338117         1.643306
