19
Iteration:  4710
 C         0.174610         0.252951         0.519009
 C         1.487124        -0.154832        -0.101683
 C         1.850121        -1.752882        -0.124789
 C         3.199316        -1.209867         0.564106
 O         3.923041        -1.752814         1.590727
 C         3.775079         0.047641        -0.227501
 C         3.246844         0.532524        -1.564319
 O         1.819236         0.331967        -1.486213
 C         2.691635         0.207873         0.718540
 H         0.071150        -0.129731         1.546203
 H        -0.010074         1.342126         0.364200
 H        -0.668543        -0.299047         0.093103
 H         1.317098        -2.396313         0.549804
 H         2.064618        -2.087939        -1.193723
 H         3.685045        -1.338496         2.458988
 H         4.834230         0.240324         0.106235
 H         3.636438         1.554758        -1.949199
 H         3.650169        -0.124321        -2.424871
 H         2.584694         0.635874         1.734692
