19
Iteration:  4913charge 0 multiplicity 1
 C         0.040003         0.196577         0.250844
 C         1.520296        -0.067133        -0.092442
 C         2.004419        -1.605329         0.024414
 C         3.197726        -1.090258         0.693292
 O         4.109986        -1.897117         1.460979
 C         3.708340         0.066989        -0.133065
 C         3.134261         0.122080        -1.636723
 O         1.807362         0.583175        -1.422652
 C         2.642286         0.326391         0.880522
 H        -0.093916        -0.157667         1.376233
 H        -0.174934         1.283872         0.126380
 H        -0.526042        -0.348823        -0.432212
 H         1.306304        -2.308823         0.580462
 H         2.260517        -2.207555        -0.965126
 H         3.674332        -2.333616         2.232068
 H         4.737841         0.295907         0.019655
 H         3.479175         0.890345        -2.325406
 H         3.176594        -0.944114        -2.179513
 H         2.659874         1.222045         1.478838
