19
Iteration:  1616
 C         0.026944         0.087048         0.153413
 C         1.476491        -0.042823        -0.128533
 C         1.974826        -1.613423         0.009517
 C         3.234933        -1.115783         0.720450
 O         4.154592        -1.767986         1.440673
 C         3.789794         0.037902        -0.232255
 C         3.141813         0.159745        -1.543526
 O         1.760906         0.571982        -1.298597
 C         2.638079         0.298334         0.841068
 H        -0.242771        -0.323029         1.153547
 H        -0.243951         1.143920        -0.018735
 H        -0.547248        -0.552151        -0.513314
 H         1.199923        -2.060897         0.735425
 H         1.913369        -2.305554        -0.860742
 H         3.645319        -2.075216         2.213577
 H         4.706491         0.503045        -0.018689
 H         3.679060         0.855931        -2.192271
 H         3.090660        -0.861631        -2.016224
 H         2.904640         0.843265         1.768460
