19
Iteration:  3064charge 0 multiplicity 1
 C         0.153637         0.055827         0.416810
 C         1.513357        -0.226051        -0.157379
 C         2.036090        -1.646879        -0.096693
 C         3.207637        -1.107761         0.647550
 O         3.838446        -1.888088         1.559763
 C         3.743061         0.132134        -0.234921
 C         3.179980         0.432197        -1.646940
 O         1.822927         0.498244        -1.366849
 C         2.656092         0.272298         0.776103
 H         0.012590        -0.546308         1.356724
 H         0.039059         1.104274         0.674276
 H        -0.692777        -0.473517        -0.158911
 H         1.256952        -2.161421         0.522646
 H         2.199748        -2.235556        -1.073999
 H         4.367966        -1.262083         2.091181
 H         4.688355         0.312576         0.008145
 H         3.457408         1.514309        -1.843837
 H         3.689176        -0.136857        -2.483407
 H         2.654520         0.928440         1.728786
