19
Iteration:  4613charge 0 multiplicity 1
 C        -0.012863         0.156375         0.151266
 C         1.447336        -0.106628        -0.111282
 C         1.911133        -1.583507         0.136008
 C         3.202551        -1.105696         0.717777
 O         4.127022        -2.030191         1.351825
 C         3.671263         0.093474        -0.136140
 C         3.239328         0.269498        -1.574732
 O         1.862504         0.507421        -1.313531
 C         2.639744         0.406208         0.877698
 H        -0.338618        -0.347768         1.115698
 H        -0.294416         1.227382        -0.118381
 H        -0.761111        -0.473752        -0.634675
 H         1.132383        -1.957586         0.819283
 H         1.916147        -2.079438        -0.789942
 H         5.028314        -1.781804         1.023133
 H         4.709351         0.477227         0.242150
 H         3.677998         1.047343        -2.243763
 H         3.410174        -0.777333        -2.016871
 H         2.647381         1.222353         1.636407
