19
Iteration:   246
 C         0.006631         0.071483         0.143636
 C         1.486483        -0.090087        -0.008499
 C         1.920192        -1.592421         0.082154
 C         3.218457        -1.033578         0.616844
 O         4.064468        -2.020247         1.395317
 C         3.689090         0.218423        -0.059640
 C         3.267900         0.255226        -1.565297
 O         1.830478         0.464218        -1.420067
 C         2.590872         0.350675         0.892153
 H        -0.365698        -0.408507         1.085788
 H        -0.320029         1.128148         0.030076
 H        -0.370299        -0.556385        -0.746011
 H         1.490136        -2.063921         1.035625
 H         1.949819        -2.104318        -0.878140
 H         4.912261        -1.570014         1.394192
 H         4.627724         0.674211         0.253940
 H         3.548340         1.061125        -2.311334
 H         3.496967        -0.697943        -2.046212
 H         2.692913         1.026385         1.730184
