19
Iteration:   719
 C        -0.011862         0.009837         0.086771
 C         1.462103        -0.033109        -0.148524
 C         1.900113        -1.548344         0.042904
 C         3.235493        -1.078647         0.773190
 O         4.235255        -1.831477         1.318596
 C         3.737456         0.091125        -0.058860
 C         3.144599         0.168890        -1.550503
 O         1.802235         0.541126        -1.339267
 C         2.660155         0.317614         0.903752
 H        -0.450197        -0.824918         0.652662
 H        -0.277225         1.055708         0.454052
 H        -0.525036        -0.074959        -0.923849
 H         1.183084        -1.866024         0.828613
 H         1.896659        -2.271351        -0.776373
 H         3.916984        -2.498327         1.978119
 H         4.666973         0.547464         0.183250
 H         3.710158         0.974352        -1.994376
 H         3.151457        -0.822504        -1.954500
 H         2.741090         1.059219         1.662809
