19
Iteration:  3858
 C         0.037777         0.109127         0.194657
 C         1.506466        -0.090347        -0.118502
 C         1.913601        -1.579461        -0.014878
 C         3.176813        -1.040906         0.635081
 O         4.097903        -1.909072         1.398733
 C         3.794301         0.109078        -0.107982
 C         3.175184         0.255090        -1.474629
 O         1.791238         0.503526        -1.319916
 C         2.643011         0.294338         0.934385
 H        -0.287635        -0.339216         1.129131
 H        -0.150120         1.144466         0.077645
 H        -0.586767        -0.425946        -0.483159
 H         1.151319        -2.132193         0.699766
 H         1.942996        -2.133521        -1.010922
 H         4.649253        -2.306953         0.691145
 H         4.917200         0.305013         0.002983
 H         3.511061         1.101931        -2.171883
 H         3.358864        -0.532282        -2.194734
 H         2.443417         0.882134         1.798346
