19
Iteration:  4750
 C         0.068306         0.177690         0.270586
 C         1.496695        -0.054879        -0.074199
 C         2.023477        -1.568348         0.041281
 C         3.222893        -1.129593         0.680666
 O         4.067741        -1.970585         1.477544
 C         3.783873         0.032829        -0.187755
 C         3.194819         0.266249        -1.558514
 O         1.730553         0.506230        -1.423984
 C         2.629636         0.378164         0.737239
 H        -0.132121        -0.103180         1.402063
 H        -0.243185         1.224275         0.074545
 H        -0.636898        -0.411441        -0.307061
 H         1.371587        -2.147337         0.796648
 H         2.045732        -2.334246        -0.845667
 H         3.410654        -2.443137         2.009708
 H         4.818284         0.462317         0.078094
 H         3.556530         1.180031        -1.992708
 H         3.421146        -0.579491        -2.179082
 H         2.723845         1.110627         1.556971
