19
Iteration:  3630
 C         0.166741         0.069744         0.455014
 C         1.541012        -0.145046        -0.096422
 C         2.034419        -1.674072        -0.222542
 C         3.255790        -1.169228         0.610490
 O         3.855952        -1.766858         1.646612
 C         3.804216         0.062763        -0.187991
 C         3.236894         0.446216        -1.573963
 O         1.649052         0.500535        -1.421491
 C         2.693802         0.263743         0.780568
 H         0.040943        -0.663597         1.350665
 H        -0.117211         1.135090         0.705482
 H        -0.565950        -0.105466        -0.414138
 H         1.337872        -2.271153         0.293035
 H         2.292024        -2.007097        -1.159131
 H         4.019408        -2.691449         1.356564
 H         4.793711         0.374207         0.157689
 H         3.503123         1.409145        -2.003280
 H         3.382655        -0.299462        -2.388231
 H         2.572666         0.889844         1.689304
