19
Iteration:  1138
 C         0.020516         0.231368         0.275699
 C         1.465083        -0.162146        -0.080548
 C         1.984104        -1.711650        -0.102200
 C         3.258562        -1.077388         0.611329
 O         4.133291        -1.877220         1.425415
 C         3.744217         0.149571        -0.112763
 C         3.248133         0.386805        -1.506557
 O         1.758845         0.325189        -1.433638
 C         2.578635         0.334707         0.905560
 H        -0.016270         0.490645         1.302478
 H        -0.337027         1.003900        -0.419795
 H        -0.644915        -0.565912         0.017133
 H         1.490322        -2.288110         0.676379
 H         2.035556        -2.350477        -0.933903
 H         3.550619        -2.255201         2.093575
 H         4.620673         0.647844         0.195027
 H         3.486723         1.396821        -1.812745
 H         3.502825        -0.256148        -2.296487
 H         2.592766         0.941040         1.784773
