19
Iteration:  1385charge 0 multiplicity 1
 C        -0.021658         0.340802         0.256468
 C         1.493040        -0.155933        -0.144525
 C         1.950675        -1.725253         0.062910
 C         3.192873        -1.103580         0.623498
 O         4.133984        -1.795398         1.406120
 C         3.787344         0.121376        -0.125017
 C         3.261909         0.444589        -1.518895
 O         1.752516         0.192718        -1.464700
 C         2.608060         0.233216         0.887919
 H        -0.302447        -0.184304         1.308242
 H         0.246709         1.460793         0.394300
 H        -0.831165         0.153094        -0.574839
 H         1.306928        -2.127654         0.846615
 H         2.067362        -2.321651        -0.825062
 H         3.713985        -2.157736         2.193153
 H         4.856207         0.287947         0.103518
 H         3.536974         1.500042        -1.757941
 H         3.632969        -0.216747        -2.418070
 H         2.465012         1.127502         1.518174
