19
Iteration:  2547charge 0 multiplicity 1
 C        -0.118586         0.059853         0.257242
 C         1.400665        -0.079495        -0.120742
 C         1.951405        -1.583434         0.050934
 C         3.253666        -1.050045         0.620877
 O         4.158402        -1.910590         1.362709
 C         3.797375         0.170985        -0.160777
 C         3.296279         0.125963        -1.567921
 O         1.815965         0.551960        -1.381146
 C         2.607973         0.365365         0.873587
 H        -0.238569        -0.405585         1.300958
 H        -0.366517         1.174463         0.339656
 H        -0.738903        -0.551267        -0.345104
 H         1.448374        -2.161967         0.737502
 H         2.123802        -2.162474        -0.879158
 H         3.830218        -2.056371         2.283533
 H         4.712709         0.405888         0.245491
 H         3.714921         0.916129        -2.178873
 H         3.229835        -0.887179        -1.931425
 H         2.576522         1.115771         1.640736
