19
Iteration:   470
 C         0.134027         0.185381         0.281593
 C         1.475152        -0.219616        -0.152862
 C         1.989707        -1.685030        -0.006264
 C         3.208795        -1.029396         0.619664
 O         3.947116        -1.878660         1.500283
 C         3.711936         0.147083        -0.123011
 C         3.227007         0.479868        -1.542860
 O         1.811570         0.272917        -1.446815
 C         2.602977         0.255526         0.828077
 H         0.126941        -0.004367         1.392054
 H        -0.102085         1.292447         0.053662
 H        -0.597307        -0.458111        -0.256642
 H         1.429016        -2.172328         0.776938
 H         1.995255        -2.340758        -0.911556
 H         4.809523        -1.410108         1.595655
 H         4.687670         0.570628         0.234364
 H         3.359684         1.567249        -1.698509
 H         3.630277        -0.133090        -2.274589
 H         2.460604         0.913356         1.742791
