19
Iteration:   495charge 0 multiplicity 1
 C         0.072923         0.237833         0.288129
 C         1.470623        -0.216146        -0.145587
 C         1.939022        -1.703025         0.027544
 C         3.228824        -1.152767         0.657661
 O         4.071605        -1.925559         1.611131
 C         3.742704         0.160818        -0.204937
 C         3.151477         0.621881        -1.545290
 O         1.788376         0.222058        -1.531814
 C         2.702831         0.255671         0.762420
 H        -0.216132        -0.291960         1.268970
 H         0.076497         1.369830         0.513686
 H        -0.572840         0.035096        -0.567530
 H         1.332257        -2.309124         0.617834
 H         2.042613        -2.178420        -0.910065
 H         3.927193        -1.337683         2.380440
 H         4.753358         0.407116         0.078485
 H         3.200316         1.691650        -1.509379
 H         3.653479         0.261052        -2.474421
 H         2.485849         0.889635         1.613200
