19
Iteration:  4843
 C         0.132921         0.329779         0.348001
 C         1.500741        -0.158906        -0.156387
 C         1.894245        -1.688820         0.087275
 C         3.268873        -1.113116         0.616911
 O         4.027605        -1.873018         1.473573
 C         3.800411         0.075904        -0.155985
 C         3.144293         0.477399        -1.494869
 O         1.762474         0.210784        -1.506421
 C         2.656791         0.314594         0.757471
 H         0.048950         0.034136         1.336364
 H         0.236023         1.405439         0.224282
 H        -0.701125         0.000414        -0.369838
 H         1.365892        -2.298865         0.844345
 H         1.696574        -2.379091        -0.935125
 H         3.463956        -2.261235         2.184812
 H         4.858455         0.242718         0.104341
 H         3.385845         1.573228        -1.565416
 H         3.565154        -0.032369        -2.343131
 H         2.801561         1.209675         1.374940
