19
Iteration:  2453charge 0 multiplicity 1
 C         0.099977         0.260157         0.287731
 C         1.452351        -0.197582        -0.051549
 C         1.825262        -1.672033         0.071550
 C         3.186874        -1.122003         0.646230
 O         4.102141        -1.821956         1.308879
 C         3.791006         0.179701        -0.160716
 C         3.240853         0.554429        -1.542740
 O         1.849052         0.153048        -1.455977
 C         2.615341         0.243110         0.847561
 H        -0.211568         0.017613         1.261125
 H        -0.033992         1.282372         0.073804
 H        -0.572242        -0.409069        -0.279198
 H         1.118112        -2.113535         0.924493
 H         2.033060        -2.451678        -0.641800
 H         3.758999        -1.907800         2.217352
 H         4.731170         0.546412         0.040310
 H         3.260922         1.630881        -1.514897
 H         3.757653        -0.019225        -2.295824
 H         2.545412         0.917419         1.743955
