19
Iteration:  2963charge 0 multiplicity 1
 C        -0.069251         0.210355         0.210504
 C         1.428423        -0.144464        -0.047197
 C         1.912121        -1.629430         0.113226
 C         3.247757        -1.071266         0.625982
 O         4.164196        -1.977596         1.234964
 C         3.730353         0.167133        -0.077169
 C         3.302289         0.374483        -1.580396
 O         1.860221         0.300351        -1.355287
 C         2.536256         0.339347         0.863354
 H        -0.578054        -0.161734         1.124576
 H        -0.228710         1.412614         0.261130
 H        -0.587839        -0.167967        -0.717230
 H         1.569727        -2.357338         0.829373
 H         1.916537        -2.181575        -0.889387
 H         4.334300        -1.651401         2.140437
 H         4.603455         0.747994         0.504956
 H         3.531026         1.406113        -1.769864
 H         3.579855        -0.486397        -2.138916
 H         2.559129         1.060909         1.637254
