19
Iteration:   423
 C        -0.013456         0.042802         0.039131
 C         1.497799        -0.049410        -0.084838
 C         1.945219        -1.538940         0.026049
 C         3.225723        -1.118677         0.732434
 O         4.188070        -1.808742         1.469492
 C         3.701612         0.151897        -0.115984
 C         3.157109         0.198955        -1.533040
 O         1.803473         0.521096        -1.334185
 C         2.614709         0.274589         0.922642
 H        -0.198337        -0.011491         1.079628
 H        -0.331346         0.971204        -0.338671
 H        -0.498542        -0.770827        -0.585041
 H         1.055032        -2.240328         0.519505
 H         2.188865        -2.057025        -0.975669
 H         4.443163        -2.603884         0.995714
 H         4.679577         0.531317        -0.151006
 H         3.553868         1.087711        -2.084550
 H         3.203421        -0.791527        -1.941848
 H         2.639765         0.717211         1.859233
