19
Iteration:  4536charge 0 multiplicity 1
 C         0.206526         0.219510         0.373578
 C         1.475152        -0.174034        -0.169852
 C         2.044706        -1.716050        -0.021138
 C         3.193904        -1.180844         0.595862
 O         3.869928        -1.779303         1.626329
 C         3.771841         0.039175        -0.229490
 C         3.156895         0.555909        -1.558638
 O         1.763207         0.363665        -1.487602
 C         2.690126         0.238552         0.793873
 H         0.045097        -0.244473         1.392384
 H         0.205531         1.335472         0.525333
 H        -0.806847         0.124418        -0.173850
 H         1.379999        -2.279392         0.647707
 H         2.171529        -2.406473        -0.835891
 H         4.141183        -2.676832         1.323591
 H         4.778056         0.268672         0.104705
 H         3.450105         1.546651        -1.471295
 H         3.500556         0.121181        -2.458231
 H         2.668605         0.824542         1.677994
