19
Iteration:  1876
 C         0.097896         0.332758         0.270681
 C         1.460036        -0.256458        -0.097304
 C         1.912250        -1.677873         0.149010
 C         3.211964        -1.075869         0.625662
 O         4.070290        -1.917167         1.358247
 C         3.719210         0.076368        -0.181320
 C         3.157617         0.621562        -1.510213
 O         1.887878         0.117268        -1.494565
 C         2.604535         0.323572         0.843471
 H        -0.146496        -0.131867         1.308510
 H         0.159016         1.492362         0.143918
 H        -0.718311        -0.013620        -0.429630
 H         1.468517        -2.272898         0.948246
 H         1.958387        -2.264497        -0.777908
 H         4.049195        -1.652777         2.303574
 H         4.744752         0.348178         0.125369
 H         3.158234         1.744057        -1.558360
 H         3.604303         0.145185        -2.405567
 H         2.573030         1.007436         1.677188
