19
Iteration:  4507charge 0 multiplicity 1
 C         0.012940         0.129243         0.300386
 C         1.453152        -0.074677        -0.054033
 C         1.902553        -1.560482        -0.018742
 C         3.196308        -1.189873         0.615533
 O         4.042691        -1.880324         1.544804
 C         3.758761         0.066211        -0.148058
 C         3.240008         0.357591        -1.565656
 O         1.802145         0.404940        -1.402013
 C         2.683242         0.344037         0.760453
 H        -0.354086        -0.385580         1.109275
 H        -0.135050         1.144020         0.653255
 H        -0.519751        -0.092954        -0.623460
 H         1.155045        -2.139072         0.693731
 H         1.979257        -2.131304        -1.028452
 H         4.769341        -2.327492         1.052746
 H         4.756822         0.358934         0.358554
 H         3.721690         1.379052        -1.995370
 H         3.490479        -0.469721        -2.323471
 H         2.791360         1.155781         1.511722
