19
Iteration:  2024
 C         0.019166         0.263696         0.537833
 C         1.430890        -0.175674        -0.184625
 C         1.952406        -1.610752        -0.038670
 C         3.298173        -1.153242         0.589793
 O         3.969368        -1.799061         1.635046
 C         3.802949         0.048407        -0.189078
 C         3.215580         0.438641        -1.583941
 O         1.792040         0.289837        -1.573341
 C         2.632308         0.224942         0.758767
 H        -0.032965        -0.216841         1.515034
 H        -0.059607         1.351355         0.717728
 H        -0.735417        -0.121596        -0.108570
 H         1.348995        -2.190555         0.678397
 H         1.962319        -2.209361        -0.940141
 H         4.888836        -2.064243         1.431576
 H         4.814296         0.418703         0.012889
 H         3.438972         1.554344        -1.766455
 H         3.623784        -0.050693        -2.465950
 H         2.484872         0.987107         1.618807
