19
Iteration:   527
 C         0.024312         0.188247         0.204604
 C         1.497170        -0.226796        -0.064033
 C         1.879605        -1.698291         0.064639
 C         3.253282        -1.113683         0.575020
 O         4.109512        -1.707032         1.472957
 C         3.780314         0.076161        -0.151779
 C         3.226739         0.419122        -1.491199
 O         1.761629         0.352257        -1.415573
 C         2.652503         0.271132         0.792694
 H        -0.605045        -0.493575         0.906979
 H         0.013659         1.262410         0.652532
 H        -0.415768         0.168572        -0.795986
 H         1.427121        -2.288335         0.770262
 H         1.957300        -2.222577        -0.863996
 H         3.575451        -2.470785         1.791377
 H         4.764972         0.211848         0.255153
 H         3.469666         1.444552        -1.756786
 H         3.608759        -0.147853        -2.271754
 H         2.643569         0.973775         1.599078
