19
Iteration:  4500
 C        -0.044329         0.153212         0.227674
 C         1.508454        -0.082267        -0.044962
 C         1.881738        -1.603853         0.005333
 C         3.238523        -1.142717         0.576007
 O         4.033860        -1.861268         1.477748
 C         3.749895         0.087177        -0.129461
 C         3.248537         0.265143        -1.523271
 O         1.821061         0.438139        -1.364576
 C         2.680573         0.337823         0.822578
 H        -0.351753        -0.507737         1.151337
 H        -0.131310         1.226863         0.567389
 H        -0.531150        -0.194595        -0.665370
 H         1.310245        -2.029476         0.714291
 H         1.782092        -1.919258        -0.993841
 H         4.848889        -2.191811         1.028752
 H         4.717309         0.386898         0.210676
 H         3.590131         1.082652        -2.074820
 H         3.360188        -0.574654        -2.246753
 H         2.704654         1.068899         1.662558
