19
Iteration:  1735
 C         0.108033         0.383545         0.168836
 C         1.500662        -0.189059        -0.069553
 C         1.859217        -1.745974         0.164200
 C         3.248653        -1.218989         0.648285
 O         4.206195        -1.734240         1.402349
 C         3.703176         0.003534        -0.189285
 C         3.146212         0.540349        -1.498001
 O         1.776202         0.242551        -1.471448
 C         2.574608         0.192123         0.842345
 H        -0.137788        -0.029172         1.153846
 H         0.069505         1.374625        -0.151638
 H        -0.504930        -0.094566        -0.536912
 H         1.250262        -2.379286         0.814719
 H         1.778181        -2.191725        -0.820563
 H         3.898120        -1.882997         2.323034
 H         4.730281         0.347702         0.066963
 H         3.322915         1.684166        -1.483393
 H         3.735299         0.154408        -2.310932
 H         2.597629         1.036688         1.608337
