19
Iteration:  3359charge 0 multiplicity 1
 C         0.060090         0.286592         0.230036
 C         1.438254        -0.250104        -0.109647
 C         1.883949        -1.737299         0.106240
 C         3.233023        -1.151236         0.558125
 O         4.037688        -1.832361         1.473979
 C         3.766473         0.124377        -0.177481
 C         3.282864         0.633465        -1.486341
 O         1.794150         0.280936        -1.424135
 C         2.626021         0.166789         0.807596
 H        -0.109288         0.328323         1.338780
 H        -0.139877         1.306287        -0.074120
 H        -0.697898        -0.435633        -0.262526
 H         1.319536        -2.124492         0.949706
 H         1.897094        -2.464234        -0.812961
 H         4.871845        -2.029236         1.002818
 H         4.729573         0.635704         0.180782
 H         3.214408         1.753363        -1.426838
 H         3.733985         0.112512        -2.293914
 H         2.521219         0.609761         1.821696
