19
Iteration:   876charge 0 multiplicity 1
 C        -0.062179         0.105263        -0.025339
 C         1.416778        -0.082485        -0.083640
 C         1.907538        -1.644507         0.098544
 C         3.248466        -1.065255         0.676200
 O         4.262572        -1.830525         1.346299
 C         3.712371         0.085623        -0.165497
 C         3.128889         0.154755        -1.532798
 O         1.806775         0.586119        -1.251276
 C         2.657138         0.290529         0.936369
 H        -0.451652        -0.567531         0.719773
 H        -0.209042         1.076808         0.391248
 H        -0.397817        -0.125073        -0.989429
 H         1.378745        -2.308732         0.844883
 H         2.181166        -2.097128        -0.882453
 H         4.095043        -2.055114         2.283557
 H         4.680940         0.481312         0.030636
 H         3.597180         0.953468        -2.061948
 H         3.143246        -0.859399        -1.973329
 H         2.909151         1.045083         1.637529
