19
Iteration:  2283charge 0 multiplicity 1
 C        -0.089873         0.300349         0.218514
 C         1.392060        -0.087300        -0.118863
 C         1.926241        -1.670016         0.004171
 C         3.248604        -1.207885         0.640923
 O         4.194056        -1.837225         1.479686
 C         3.789655         0.066642        -0.115028
 C         3.235929         0.336970        -1.509491
 O         1.746261         0.392641        -1.402410
 C         2.646107         0.246285         0.848014
 H        -0.240279         0.134320         1.289189
 H        -0.318139         1.351645         0.042335
 H        -0.854370        -0.204073        -0.340995
 H         1.492924        -2.254660         0.783325
 H         1.899079        -2.481204        -0.831849
 H         5.049540        -1.986622         1.017013
 H         4.684495         0.541963         0.219958
 H         3.435132         1.293675        -1.892608
 H         3.435580        -0.347034        -2.357627
 H         2.726211         0.991546         1.586056
