19
Iteration:  3598
 C        -0.043724         0.038366         0.278299
 C         1.492979        -0.106552        -0.063919
 C         1.980695        -1.603214        -0.038257
 C         3.272330        -1.117549         0.656186
 O         4.002408        -1.858230         1.533826
 C         3.778070         0.061530        -0.186619
 C         3.230545         0.309267        -1.601274
 O         1.772953         0.631351        -1.342064
 C         2.674520         0.281266         0.830658
 H        -0.350552        -0.863840         0.872030
 H        -0.391853         1.009090         0.733110
 H        -0.646011        -0.282807        -0.644764
 H         1.304824        -2.185734         0.494628
 H         2.072344        -2.103209        -0.958795
 H         4.631677        -2.440600         1.080462
 H         4.715329         0.466693         0.143179
 H         3.801950         1.035900        -2.221309
 H         3.250499        -0.703525        -2.250100
 H         2.719932         1.104800         1.559239
