19
Iteration:   555
 C        -0.054620         0.162678         0.163137
 C         1.500881        -0.072536        -0.139632
 C         1.948150        -1.573997         0.030445
 C         3.279851        -1.027136         0.708007
 O         4.232811        -1.814390         1.390482
 C         3.698671         0.130734        -0.064451
 C         3.210623         0.166793        -1.533491
 O         1.803920         0.473853        -1.438741
 C         2.530652         0.213270         0.944027
 H        -0.343566        -0.460486         0.964699
 H        -0.253713         1.180459         0.416751
 H        -0.767217        -0.128067        -0.613909
 H         1.276680        -2.148087         0.820932
 H         2.254341        -2.190862        -0.878036
 H         3.852780        -2.697246         1.347676
 H         4.673659         0.474945         0.360753
 H         3.601872         1.018730        -2.173335
 H         3.391760        -0.880297        -2.103039
 H         2.504444         1.042979         1.699034
