19
Iteration:  1315charge 0 multiplicity 1
 C        -0.061959         0.082343         0.121800
 C         1.473474        -0.113353         0.022398
 C         1.959256        -1.598133         0.083728
 C         3.267370        -1.069822         0.667283
 O         4.133651        -1.894817         1.386459
 C         3.778685         0.091974        -0.142640
 C         3.235948         0.226424        -1.602508
 O         1.744595         0.536899        -1.351246
 C         2.674334         0.367079         0.899364
 H        -0.522962         0.158422         1.080641
 H        -0.206395         0.972048        -0.501699
 H        -0.470305        -0.739808        -0.533947
 H         1.330201        -2.165219         0.839925
 H         2.084650        -2.204606        -0.874637
 H         3.583666        -2.404199         1.991728
 H         4.847355         0.393426         0.015837
 H         3.463765         1.109474        -2.156570
 H         3.497655        -0.664783        -2.242006
 H         2.562146         1.191633         1.595799
