19
Iteration:  4336charge 0 multiplicity 1
 C        -0.064871         0.177721         0.225563
 C         1.439143        -0.118273        -0.058245
 C         1.930190        -1.628624        -0.011134
 C         3.284264        -1.099184         0.548768
 O         4.065884        -1.877271         1.428749
 C         3.784336         0.077140        -0.147489
 C         3.232853         0.164187        -1.557060
 O         1.837300         0.613830        -1.349023
 C         2.614917         0.221207         0.882842
 H        -0.568423        -0.285551         1.171419
 H        -0.318760         1.278888         0.372336
 H        -0.668369        -0.176054        -0.604549
 H         1.450727        -1.940305         0.854453
 H         1.911552        -2.349108        -0.847289
 H         4.767203        -1.296770         1.760761
 H         4.821715         0.427822         0.215224
 H         3.876805         0.825827        -2.218862
 H         3.245574        -0.813634        -1.997709
 H         2.522308         0.767515         1.782906
