19
Iteration:   351charge 0 multiplicity 1
 C         0.130008         0.190383         0.381850
 C         1.536904        -0.264307        -0.178045
 C         1.942093        -1.716333        -0.092665
 C         3.128566        -1.062355         0.652683
 O         3.947197        -1.735225         1.581190
 C         3.745968         0.127723        -0.163636
 C         3.261287         0.516168        -1.502679
 O         1.821195         0.217569        -1.467836
 C         2.608419         0.319232         0.772076
 H        -0.069911        -0.538788         1.197152
 H         0.179307         1.225456         0.866950
 H        -0.735687         0.099176        -0.299327
 H         1.355418        -2.397648         0.425116
 H         2.140206        -2.183686        -1.044590
 H         4.552941        -2.293168         1.075517
 H         4.669594         0.458603         0.298173
 H         3.396795         1.562151        -1.703830
 H         3.654963        -0.177294        -2.331460
 H         2.458487         0.949596         1.633985
