19
Iteration:  3597charge 0 multiplicity 1
 C        -0.049141         0.046999         0.274432
 C         1.489303        -0.105493        -0.063989
 C         1.982409        -1.605401        -0.036180
 C         3.268285        -1.113387         0.647281
 O         4.012361        -1.864322         1.533504
 C         3.783812         0.066218        -0.176868
 C         3.237864         0.303708        -1.610962
 O         1.768285         0.634006        -1.342209
 C         2.669655         0.276678         0.827573
 H        -0.376565        -0.861187         0.898141
 H        -0.415330         0.990649         0.735126
 H        -0.608523        -0.284785        -0.660831
 H         1.298882        -2.183286         0.531050
 H         2.050692        -2.101676        -0.931702
 H         4.659950        -2.440182         1.091972
 H         4.684931         0.471024         0.147354
 H         3.802351         1.035684        -2.190427
 H         3.242150        -0.701878        -2.206724
 H         2.724152         1.092996         1.565437
