19
Iteration:  4135
 C         0.055497         0.162167         0.278646
 C         1.451029        -0.055823        -0.108965
 C         1.931489        -1.560535        -0.083908
 C         3.216535        -1.137454         0.653837
 O         4.126060        -1.897262         1.615908
 C         3.763925         0.031855        -0.167512
 C         3.199935         0.309638        -1.552912
 O         1.716128         0.495979        -1.412525
 C         2.647979         0.244639         0.826015
 H        -0.168842         0.063798         1.336788
 H        -0.224106         1.273366         0.054723
 H        -0.639657        -0.548326        -0.274114
 H         1.276353        -2.251424         0.445162
 H         1.963193        -2.084365        -1.068710
 H         4.766479        -2.311791         1.005145
 H         4.797650         0.305288         0.072959
 H         3.651722         1.291143        -1.907040
 H         3.453913        -0.316325        -2.415645
 H         2.589000         0.818344         1.729894
