19
Iteration:  4933charge 0 multiplicity 1
 C        -0.052166         0.247379         0.113625
 C         1.404761        -0.076399        -0.038513
 C         1.952639        -1.572011         0.049622
 C         3.237580        -1.041758         0.638643
 O         4.170364        -1.894034         1.350497
 C         3.821492         0.059868        -0.135878
 C         3.183161         0.121805        -1.518595
 O         1.790890         0.439344        -1.320826
 C         2.705281         0.314483         0.865022
 H        -0.523897        -0.149072         1.035730
 H        -0.239063         1.313260         0.193736
 H        -0.589638        -0.063075        -0.757767
 H         1.301089        -1.988402         0.849629
 H         1.678193        -2.165459        -0.955033
 H         3.799184        -1.979425         2.256663
 H         4.751670         0.592290         0.013953
 H         3.673185         0.805890        -2.220797
 H         3.112689        -0.844761        -1.995818
 H         2.774843         0.864593         1.782367
