19
Iteration:  4583charge 0 multiplicity 1
 C         0.073585         0.285027         0.323984
 C         1.454656        -0.137588        -0.140494
 C         2.016359        -1.641674        -0.066506
 C         3.234584        -1.152753         0.564996
 O         3.990694        -1.809473         1.534560
 C         3.750254         0.020385        -0.163650
 C         3.253306         0.415317        -1.513476
 O         1.750319         0.376689        -1.438638
 C         2.640765         0.225794         0.907905
 H        -0.171382         0.194953         1.341357
 H        -0.288365         1.259954         0.033095
 H        -0.696500        -0.333219        -0.180572
 H         1.319230        -2.246668         0.650648
 H         1.888353        -2.245719        -0.998077
 H         4.633214        -2.299757         1.005257
 H         4.783920         0.273359         0.187449
 H         3.532248         1.382103        -1.836410
 H         3.578553        -0.340322        -2.163677
 H         2.620141         0.856483         1.840857
