19
Iteration:  2623charge 0 multiplicity 1
 C         0.109939         0.316742         0.308913
 C         1.442229        -0.281810        -0.148711
 C         1.881093        -1.727820         0.065322
 C         3.227786        -1.097087         0.614232
 O         4.119932        -1.733211         1.416482
 C         3.765200         0.156646        -0.178949
 C         3.217217         0.492033        -1.473009
 O         1.806514         0.156256        -1.491421
 C         2.568174         0.271592         0.865711
 H        -0.125069         0.024251         1.360438
 H         0.387765         1.406258         0.270914
 H        -0.738102         0.053989        -0.248411
 H         1.402925        -2.095062         0.922675
 H         1.819961        -2.407373        -0.827463
 H         3.680034        -2.558959         1.669646
 H         4.820407         0.306169         0.040455
 H         3.244959         1.606769        -1.733683
 H         3.762225         0.088911        -2.340980
 H         2.525536         0.984950         1.801289
