19
Iteration:  4454
 C        -0.012007         0.296207         0.066469
 C         1.372745        -0.109655        -0.020684
 C         1.883796        -1.636013         0.039944
 C         3.293867        -1.147957         0.679154
 O         4.229083        -2.008113         1.391841
 C         3.705131         0.079986        -0.103916
 C         3.165220         0.220394        -1.466662
 O         1.793555         0.487760        -1.333931
 C         2.565713         0.352521         0.867878
 H        -0.325970         0.273757         1.113500
 H        -0.088185         1.371161        -0.259072
 H        -0.487240        -0.467373        -0.507735
 H         1.488893        -2.209652         0.820006
 H         2.062987        -2.074423        -0.911401
 H         5.150833        -1.828078         1.106991
 H         4.754864         0.566711         0.111899
 H         3.672221         1.104577        -2.010574
 H         3.312517        -0.630206        -2.223022
 H         2.539025         1.296428         1.462172
