19
Iteration:  2471charge 0 multiplicity 1
 C         0.069133         0.254169         0.262505
 C         1.474594        -0.161079        -0.155492
 C         1.921397        -1.695603         0.102288
 C         3.299984        -1.150029         0.535724
 O         4.145037        -1.820845         1.503473
 C         3.694174         0.085708        -0.143238
 C         3.176308         0.578557        -1.505954
 O         1.764201         0.215077        -1.489358
 C         2.658728         0.259340         0.810843
 H         0.108303        -0.139071         1.364072
 H         0.014063         1.435178         0.197339
 H        -0.724982        -0.053617        -0.377784
 H         1.401340        -2.191523         0.885686
 H         1.506618        -2.194372        -0.835672
 H         3.570063        -2.246923         2.161563
 H         4.725657         0.208838         0.159139
 H         3.253720         1.714616        -1.575106
 H         3.606805         0.038143        -2.361055
 H         2.606979         0.810197         1.632765
