19
Iteration:  4050
 C        -0.002431         0.187806         0.172469
 C         1.459238        -0.153615        -0.033228
 C         1.885609        -1.642599         0.154645
 C         3.170133        -1.088532         0.608827
 O         4.135092        -1.882003         1.369452
 C         3.790963         0.014229        -0.143695
 C         3.199331         0.468662        -1.471464
 O         1.814761         0.320494        -1.380070
 C         2.652374         0.395392         0.816628
 H        -0.483688        -0.424703         0.904524
 H        -0.006784         1.236301         0.233231
 H        -0.520872         0.145433        -0.760665
 H         1.338095        -2.001642         1.006110
 H         1.868571        -2.256088        -0.884336
 H         4.420334        -2.655572         0.834592
 H         4.810319         0.156428         0.194540
 H         3.525529         1.522176        -1.571173
 H         3.539777        -0.218004        -2.313599
 H         2.590120         1.052095         1.646821
