19
Iteration:  2048charge 0 multiplicity 1
 C         0.089203         0.314110         0.254048
 C         1.427254        -0.202491        -0.135469
 C         1.938417        -1.716910         0.084109
 C         3.222302        -1.120965         0.635283
 O         4.088157        -1.801959         1.471310
 C         3.733819         0.060490        -0.162855
 C         3.182702         0.395408        -1.540521
 O         1.761613         0.343363        -1.386394
 C         2.640723         0.265441         0.824404
 H        -0.201558         0.057252         1.312262
 H         0.095976         1.445559         0.263914
 H        -0.571358        -0.066392        -0.502101
 H         1.326969        -2.397515         0.787651
 H         2.054977        -2.362377        -0.870660
 H         4.898247        -2.088807         1.038896
 H         4.601561         0.528128         0.184534
 H         3.494771         1.391334        -1.926665
 H         3.544831        -0.292418        -2.369923
 H         2.481851         0.927580         1.585717
