19
Iteration:  1918
 C        -0.035408         0.215690         0.104692
 C         1.438201        -0.086770         0.024148
 C         1.926013        -1.633687         0.166193
 C         3.223874        -1.073162         0.644000
 O         4.191062        -1.834644         1.222642
 C         3.715334         0.114698        -0.096270
 C         3.245889         0.315409        -1.556365
 O         1.854950         0.303488        -1.392896
 C         2.598724         0.312376         0.945053
 H        -0.397404        -0.106734         1.141852
 H        -0.225081         1.348489        -0.037976
 H        -0.849022        -0.144563        -0.544739
 H         1.290319        -2.044612         1.039454
 H         1.827467        -2.381509        -0.720926
 H         3.823527        -2.363407         1.965867
 H         4.793046         0.291508        -0.003631
 H         3.624730         1.208538        -2.044944
 H         3.617995        -0.603071        -2.209848
 H         2.556977         1.070060         1.722345
