19
Iteration:  1898
 C         0.035549         0.292964         0.240985
 C         1.438325        -0.133337        -0.136713
 C         1.847222        -1.575570         0.188648
 C         3.258868        -1.072346         0.628501
 O         4.233223        -2.018019         1.284629
 C         3.713214         0.168847        -0.031081
 C         3.271808         0.427109        -1.473058
 O         1.765946         0.158740        -1.512380
 C         2.605865         0.352634         0.795784
 H        -0.373758        -0.201079         1.208858
 H        -0.173706         1.419041         0.055060
 H        -0.690455        -0.120731        -0.554642
 H         1.324043        -1.971350         1.070481
 H         1.859027        -2.357503        -0.585376
 H         4.060315        -1.914693         2.230816
 H         4.591840         0.681062         0.347320
 H         3.367339         1.527193        -1.592694
 H         3.705729        -0.124357        -2.320291
 H         2.441918         1.021360         1.579686
