19
Iteration:   600charge 0 multiplicity 1
 C        -0.008500         0.098913         0.145024
 C         1.472998        -0.149468        -0.091811
 C         1.975581        -1.555997         0.057062
 C         3.218947        -1.067572         0.668572
 O         4.094925        -1.872459         1.362469
 C         3.761953         0.150735        -0.119282
 C         3.242903         0.369372        -1.515311
 O         1.779686         0.379267        -1.441385
 C         2.620337         0.259965         0.958330
 H        -0.148169         0.106770         1.214592
 H        -0.258817         1.036183        -0.345449
 H        -0.543537        -0.774945        -0.187434
 H         1.475848        -2.154582         0.941086
 H         1.983178        -2.076195        -0.974630
 H         3.757987        -2.134003         2.226165
 H         4.742890         0.503290         0.149564
 H         3.556635         1.352757        -2.031110
 H         3.473316        -0.464361        -2.362917
 H         2.699241         0.975492         1.763356
