19
Iteration:  4150charge 0 multiplicity 1
 C        -0.014295         0.045979         0.240775
 C         1.494779        -0.053477        -0.104682
 C         1.891500        -1.546111        -0.023929
 C         3.231501        -1.136305         0.663864
 O         4.049873        -1.839330         1.479067
 C         3.779775        -0.002975        -0.142534
 C         3.184394         0.267404        -1.555618
 O         1.815634         0.569049        -1.356421
 C         2.669145         0.303856         0.857890
 H        -0.053204        -0.305995         1.269543
 H        -0.419904         1.006425         0.265453
 H        -0.429886        -0.635182        -0.439129
 H         1.204679        -1.979102         0.713771
 H         1.995227        -2.032165        -1.101361
 H         4.547260        -2.579949         1.077745
 H         4.697462         0.490647         0.109270
 H         3.703019         1.142984        -2.148899
 H         3.286385        -0.769431        -2.062864
 H         2.917083         1.205689         1.498047
