19
Iteration:  3883
 C        -0.084949         0.273679         0.114736
 C         1.421681        -0.159349        -0.033416
 C         1.930588        -1.682868         0.125022
 C         3.248947        -1.116051         0.553579
 O         4.236940        -1.867876         1.323423
 C         3.652175         0.110531        -0.077012
 C         3.239892         0.311413        -1.469616
 O         1.864686         0.504688        -1.362862
 C         2.573948         0.221659         0.956209
 H        -0.500865        -0.196192         0.897906
 H        -0.120931         1.359498         0.115928
 H        -0.774692        -0.007545        -0.696025
 H         1.448059        -2.125044         1.023964
 H         1.761869        -2.298606        -0.830532
 H         4.590446        -2.596997         0.771578
 H         4.591252         0.389695         0.190278
 H         3.738479         1.042664        -2.045225
 H         3.403733        -0.581446        -2.139003
 H         2.595635         1.071689         1.680317
