19
Iteration:  1776charge 0 multiplicity 1
 C        -0.069628         0.070295         0.234858
 C         1.435132         0.008231         0.017619
 C         1.964308        -1.523185         0.084271
 C         3.290330        -0.993792         0.610965
 O         4.088985        -1.914703         1.364913
 C         3.807507         0.173819        -0.108463
 C         3.219315         0.180244        -1.567541
 O         1.828546         0.392232        -1.477845
 C         2.635498         0.329237         0.901311
 H        -0.256607        -0.584685         1.190363
 H        -0.517791         1.195637         0.264110
 H        -0.686487        -0.440574        -0.581968
 H         1.533094        -2.163100         0.867967
 H         2.028347        -2.166767        -0.826105
 H         3.516859        -2.600249         1.752810
 H         4.727315         0.597782         0.243628
 H         3.675553         0.911833        -2.249740
 H         3.375417        -0.774012        -2.138918
 H         2.682506         1.204174         1.571708
