19
Iteration:  1121
 C         0.091392         0.233741         0.320100
 C         1.484449        -0.240406        -0.153579
 C         1.971896        -1.636688        -0.015488
 C         3.232002        -1.158810         0.648525
 O         4.063013        -1.790192         1.538145
 C         3.781918         0.149942        -0.142559
 C         3.142226         0.570948        -1.582919
 O         1.781145         0.271622        -1.448147
 C         2.624003         0.158324         0.801540
 H         0.273050         0.471067         1.423059
 H        -0.037845         1.166331        -0.235742
 H        -0.750091        -0.531775         0.141964
 H         1.277535        -2.318690         0.544812
 H         2.127907        -1.968328        -1.120075
 H         3.567412        -2.459927         2.019135
 H         4.851638         0.353063         0.156837
 H         3.254936         1.682080        -1.847592
 H         3.726527        -0.038261        -2.387437
 H         2.410544         0.762048         1.721555
