19
Iteration:   516charge 0 multiplicity 1
 C         0.036216         0.205231         0.208383
 C         1.442971        -0.148667        -0.093348
 C         2.015874        -1.713796         0.056181
 C         3.264333        -1.130967         0.555739
 O         4.047680        -1.723467         1.504875
 C         3.840775        -0.025564        -0.206618
 C         3.184682         0.543153        -1.500449
 O         1.765128         0.263161        -1.433699
 C         2.626878         0.211725         0.841884
 H        -0.457126        -0.436596         1.032903
 H         0.142960         1.280375         0.644730
 H        -0.582000         0.335541        -0.683356
 H         1.449139        -2.127750         0.791265
 H         1.990691        -2.327790        -0.807427
 H         3.387948        -2.131583         2.139265
 H         4.761419         0.450055         0.105039
 H         3.384462         1.607739        -1.452897
 H         3.466974         0.119387        -2.412479
 H         2.655691         1.043222         1.523240
