19
Iteration:  2025
 C         0.011428         0.267950         0.532320
 C         1.435061        -0.182081        -0.180334
 C         1.955976        -1.607121        -0.038515
 C         3.299177        -1.154490         0.588148
 O         3.976098        -1.802066         1.635274
 C         3.803559         0.050503        -0.184552
 C         3.220872         0.438361        -1.576622
 O         1.788841         0.292392        -1.571820
 C         2.619848         0.229517         0.758260
 H        -0.026267        -0.229689         1.522971
 H        -0.047837         1.376539         0.695286
 H        -0.742557        -0.100053        -0.108592
 H         1.341792        -2.204693         0.701008
 H         1.945296        -2.249713        -0.955694
 H         4.899101        -2.061927         1.419178
 H         4.798217         0.395191        -0.012860
 H         3.433681         1.521322        -1.781302
 H         3.623904        -0.030347        -2.495008
 H         2.518853         0.969790         1.577765
