19
Iteration:   187
 C         0.177448         0.239103         0.317024
 C         1.489904        -0.257484        -0.179274
 C         1.904254        -1.685672        -0.115527
 C         3.244694        -1.163871         0.653486
 O         3.981237        -1.775898         1.670805
 C         3.759557         0.104458        -0.225730
 C         3.165308         0.567260        -1.575554
 O         1.799766         0.313199        -1.463139
 C         2.545945         0.118743         0.837524
 H        -0.065487        -0.184716         1.246304
 H         0.216812         1.291526         0.472999
 H        -0.617963         0.025958        -0.260047
 H         1.475725        -2.331559         0.645512
 H         1.955731        -2.331586        -1.072913
 H         4.872178        -1.399880         1.671523
 H         4.757031         0.385618         0.160608
 H         3.345468         1.602995        -1.639243
 H         3.692174         0.137801        -2.417843
 H         2.558308         0.875809         1.692150
