19
Iteration:   331
 C         0.040118         0.260998         0.392561
 C         1.407474        -0.183611        -0.148113
 C         2.028922        -1.741444        -0.068278
 C         3.266622        -1.184809         0.594039
 O         3.971356        -1.793433         1.602788
 C         3.770246         0.135108        -0.154674
 C         3.265361         0.482452        -1.542639
 O         1.838950         0.287930        -1.521555
 C         2.487596         0.247747         0.817439
 H        -0.083057        -0.088754         1.415439
 H         0.015793         1.351418         0.445437
 H        -0.730194        -0.012382        -0.212144
 H         1.439334        -2.426782         0.652845
 H         2.107047        -2.268228        -1.078417
 H         4.911680        -1.798026         1.294337
 H         4.748347         0.478455         0.237317
 H         3.409891         1.529251        -1.661461
 H         3.749465        -0.126197        -2.346139
 H         2.404042         0.993678         1.633071
