19
Iteration:   523charge 0 multiplicity 1
 C         0.012968         0.186717         0.209138
 C         1.481154        -0.190165        -0.072756
 C         1.942007        -1.690342         0.074777
 C         3.256376        -1.133987         0.560376
 O         4.088170        -1.696583         1.480719
 C         3.817645         0.035270        -0.180021
 C         3.201372         0.457782        -1.470722
 O         1.755878         0.320156        -1.429046
 C         2.647554         0.235495         0.813382
 H        -0.512878        -0.373542         0.946189
 H         0.117438         1.167962         0.652917
 H        -0.406865         0.255260        -0.788958
 H         1.319493        -2.369950         0.859055
 H         1.973856        -2.311589        -0.919014
 H         3.362437        -2.297595         1.794341
 H         4.813029         0.274044         0.302653
 H         3.478798         1.566697        -1.667482
 H         3.571957        -0.036873        -2.418525
 H         2.614421         1.087495         1.565953
