19
Iteration:    85charge 0 multiplicity 1
 C         0.012465         0.169595         0.130384
 C         1.483396        -0.151926        -0.067899
 C         1.865700        -1.712780        -0.008084
 C         3.278801        -1.098707         0.615973
 O         4.145200        -1.791152         1.586749
 C         3.733388         0.171284        -0.142131
 C         3.194992         0.339533        -1.544064
 O         1.787227         0.499823        -1.380740
 C         2.622469         0.217869         0.843350
 H        -0.258057        -0.222577         1.125380
 H        -0.169481         1.210207        -0.030178
 H        -0.583151        -0.371440        -0.702512
 H         1.435303        -2.379154         0.771264
 H         1.660253        -2.327927        -0.930076
 H         4.569185        -2.596351         1.192997
 H         4.699031         0.511875         0.147169
 H         3.656821         1.202345        -2.030150
 H         3.338740        -0.638963        -2.066043
 H         2.580475         0.816777         1.670240
