19
Iteration:  2034
 C         0.012019         0.288067         0.406986
 C         1.458684        -0.185678        -0.105602
 C         1.962733        -1.699021        -0.034730
 C         3.264738        -1.138561         0.580416
 O         4.048754        -1.829804         1.612371
 C         3.756175         0.063814        -0.184789
 C         3.267991         0.416146        -1.543441
 O         1.743174         0.314708        -1.495960
 C         2.548771         0.271534         0.729921
 H        -0.034050        -0.172306         1.372836
 H         0.140842         1.367473         0.395699
 H        -0.944641         0.119284        -0.100501
 H         1.500980        -2.104819         0.844763
 H         1.898712        -2.311437        -0.862355
 H         4.899569        -1.997339         1.129750
 H         4.814275         0.379707         0.058790
 H         3.509247         1.569345        -1.705991
 H         3.575996        -0.137541        -2.397811
 H         2.846306         1.074016         1.582131
