19
Iteration:  4047charge 0 multiplicity 1
 C         0.003846         0.173041         0.153031
 C         1.454976        -0.142591        -0.035179
 C         1.907266        -1.632247         0.158963
 C         3.179963        -1.108028         0.594124
 O         4.130274        -1.881075         1.368680
 C         3.781857         0.030515        -0.143735
 C         3.201609         0.433490        -1.446285
 O         1.790892         0.357295        -1.366240
 C         2.658333         0.398394         0.814803
 H        -0.489731        -0.455754         0.792106
 H         0.006204         1.269182         0.183411
 H        -0.570709         0.106951        -0.788490
 H         1.367402        -2.083457         1.074890
 H         1.861286        -2.311787        -0.788762
 H         4.370428        -2.676178         0.870221
 H         4.907408         0.082132         0.178060
 H         3.528207         1.584709        -1.728342
 H         3.510447        -0.256177        -2.276370
 H         2.656952         1.040752         1.666868
