19
Iteration:  4172charge 0 multiplicity 1
 C        -0.024676         0.016950         0.218642
 C         1.486978        -0.097080        -0.076398
 C         1.935376        -1.604656         0.083755
 C         3.240807        -1.002837         0.597065
 O         3.962789        -1.860272         1.449074
 C         3.803946         0.118875        -0.206552
 C         3.229141         0.189115        -1.604538
 O         1.838531         0.607774        -1.287387
 C         2.682602         0.345811         0.852408
 H        -0.306913        -0.570972         1.110871
 H        -0.297276         0.993456         0.418835
 H        -0.321116        -0.388312        -0.706021
 H         1.536436        -2.041028         1.019070
 H         2.150266        -2.203867        -0.956856
 H         3.966832        -2.674632         0.904469
 H         4.901505         0.207591         0.001150
 H         3.667308         1.100923        -2.275834
 H         3.137917        -0.902450        -2.032571
 H         2.633374         0.694617         1.929377
