19
Iteration:  1225charge 0 multiplicity 1
 C        -0.019438         0.225926         0.236249
 C         1.476880        -0.140795        -0.097908
 C         2.018799        -1.694407         0.033547
 C         3.269117        -1.130033         0.599763
 O         4.099940        -1.842871         1.498620
 C         3.734718         0.137421        -0.148315
 C         3.155523         0.401468        -1.576943
 O         1.770772         0.373348        -1.424000
 C         2.659007         0.272964         0.826640
 H        -0.372436        -0.512546         0.904295
 H        -0.078732         1.200550         0.787770
 H        -0.636549         0.157245        -0.679719
 H         1.449795        -2.370204         0.769947
 H         2.236767        -2.256394        -0.978096
 H         3.544900        -2.120591         2.242784
 H         4.722620         0.506391         0.172613
 H         3.550613         1.355216        -2.043197
 H         3.562807        -0.525968        -2.178635
 H         2.696906         0.959058         1.693684
