19
Iteration:    10charge 0 multiplicity 1
 C         0.060467         0.181854         0.270734
 C         1.490413        -0.140599        -0.201524
 C         1.966832        -1.618391        -0.013920
 C         3.222194        -1.076948         0.631669
 O         3.968553        -1.809742         1.562330
 C         3.774890         0.097762        -0.199919
 C         3.209669         0.435530        -1.500135
 O         1.813002         0.312648        -1.423008
 C         2.576735         0.249276         0.867247
 H         0.166748        -0.309746         1.207826
 H        -0.063111         1.174332         0.482044
 H        -0.653630        -0.332106        -0.455198
 H         1.432656        -2.063299         0.941887
 H         2.131968        -2.341338        -1.011948
 H         4.680403        -2.279531         1.123850
 H         4.664169         0.625004         0.002366
 H         3.575447         1.331056        -1.936792
 H         3.513125        -0.354336        -2.248860
 H         2.565556         0.713788         1.784224
