19
Iteration:  4772
 C        -0.057695         0.220299         0.098692
 C         1.419003        -0.089640        -0.043212
 C         1.880900        -1.540133         0.131912
 C         3.219026        -1.059181         0.725600
 O         4.205849        -1.892961         1.281051
 C         3.760938         0.049484        -0.154626
 C         3.162681         0.131400        -1.591642
 O         1.888530         0.502904        -1.362242
 C         2.648984         0.338025         0.973711
 H        -0.189644        -0.222684         1.183548
 H        -0.208417         1.322892         0.117186
 H        -0.637623        -0.243857        -0.692471
 H         1.244217        -2.207503         0.790453
 H         1.889499        -2.189787        -0.801619
 H         3.758674        -2.629766         1.760383
 H         4.822284         0.400496         0.119059
 H         3.641504         0.865138        -2.227093
 H         3.293085        -0.874115        -1.980036
 H         2.620093         1.176173         1.708890
