19
Iteration:  1514charge 0 multiplicity 1
 C         0.025199         0.252611         0.087840
 C         1.455408        -0.153466        -0.024082
 C         1.861037        -1.590170         0.166272
 C         3.302470        -1.110685         0.658028
 O         4.207679        -1.813140         1.409668
 C         3.733977         0.026986        -0.181591
 C         3.205152         0.371901        -1.516117
 O         1.704189         0.304899        -1.452509
 C         2.663312         0.311758         0.874863
 H        -0.382020         0.094011         1.088419
 H         0.031090         1.373038         0.072793
 H        -0.476052        -0.409070        -0.704783
 H         1.401757        -2.147792         1.078348
 H         1.815583        -2.296964        -0.747787
 H         3.742117        -2.656370         1.610823
 H         4.704708         0.540779         0.113573
 H         3.541671         1.412291        -1.776092
 H         3.670625        -0.290999        -2.241445
 H         2.546514         0.954786         1.772053
