19
Iteration:  4512charge 0 multiplicity 1
 C         0.064458         0.141515         0.335496
 C         1.446297        -0.085547        -0.077150
 C         1.895887        -1.569467        -0.030251
 C         3.197335        -1.170720         0.659436
 O         4.033116        -1.888153         1.576855
 C         3.789279         0.029267        -0.168682
 C         3.245861         0.421426        -1.599394
 O         1.783491         0.397882        -1.434597
 C         2.659481         0.330356         0.766055
 H        -0.341336        -0.568902         1.179568
 H        -0.202901         1.215911         0.557868
 H        -0.636847         0.037616        -0.525785
 H         1.278286        -2.165619         0.534847
 H         2.053133        -2.193306        -0.865332
 H         4.667572        -2.382225         1.041241
 H         4.725880         0.336105         0.177326
 H         3.596654         1.367864        -1.821313
 H         3.577759        -0.347685        -2.293678
 H         2.769735         1.132947         1.484367
