19
Iteration:   579charge 0 multiplicity 1
 C        -0.080026         0.095224         0.137661
 C         1.514348        -0.107183        -0.034141
 C         2.005403        -1.650440        -0.033226
 C         3.245653        -1.036667         0.673533
 O         4.180533        -1.914118         1.332249
 C         3.727510         0.183518        -0.068139
 C         3.207151         0.185817        -1.464714
 O         1.835014         0.449396        -1.324731
 C         2.542675         0.475609         0.831137
 H        -0.423758        -0.029243         1.167364
 H        -0.136175         1.168390        -0.134038
 H        -0.729072        -0.471542        -0.459650
 H         1.418841        -2.260155         0.731826
 H         2.240514        -2.206909        -1.017862
 H         3.633723        -2.618057         1.745278
 H         4.647107         0.653650         0.214164
 H         3.601090         0.931726        -2.229668
 H         3.299961        -0.861348        -1.932643
 H         2.397066         1.136187         1.657052
