19
Iteration:  1224charge 0 multiplicity 1
 C        -0.035460         0.229321         0.226611
 C         1.476717        -0.136835        -0.097629
 C         2.014543        -1.695690         0.035695
 C         3.271777        -1.121615         0.600067
 O         4.105188        -1.845710         1.494933
 C         3.728902         0.143936        -0.152169
 C         3.163840         0.388671        -1.573254
 O         1.775636         0.375305        -1.408600
 C         2.665899         0.271489         0.825246
 H        -0.404707        -0.530009         0.903219
 H        -0.070328         1.199118         0.793392
 H        -0.614675         0.109491        -0.699682
 H         1.432875        -2.356318         0.786655
 H         2.250818        -2.261704        -0.974025
 H         3.544465        -2.145975         2.237364
 H         4.695611         0.509061         0.141797
 H         3.574543         1.373512        -2.022954
 H         3.511962        -0.528465        -2.224981
 H         2.695553         0.957814         1.665609
