19
Iteration:   228
 C        -0.026313         0.186691         0.209032
 C         1.423021        -0.201204        -0.136401
 C         2.019412        -1.636947         0.009116
 C         3.264936        -1.006619         0.635717
 O         3.973711        -1.873911         1.418937
 C         3.784824         0.099708        -0.111612
 C         3.247956         0.346711        -1.494831
 O         1.818740         0.362738        -1.355829
 C         2.605599         0.279226         0.857611
 H        -0.244743        -0.343507         1.164407
 H         0.027598         1.263678         0.328296
 H        -0.798851        -0.165911        -0.602772
 H         1.458547        -2.202944         0.718411
 H         2.103357        -2.303266        -0.864265
 H         4.903831        -1.654511         1.526571
 H         4.801978         0.532830         0.083939
 H         3.571456         1.330509        -1.952114
 H         3.435607        -0.406944        -2.326908
 H         2.364279         1.063268         1.659442
