19
Iteration:  4586
 C         0.070051         0.277377         0.305969
 C         1.454841        -0.122793        -0.130352
 C         2.011266        -1.651974        -0.052643
 C         3.222903        -1.125059         0.596928
 O         4.005815        -1.832434         1.506148
 C         3.764247         0.014093        -0.147976
 C         3.248590         0.391168        -1.504274
 O         1.740621         0.394098        -1.436491
 C         2.631137         0.242399         0.902177
 H        -0.184379         0.067587         1.347263
 H        -0.259171         1.230326        -0.076960
 H        -0.618716        -0.317389        -0.159571
 H         1.361215        -2.189419         0.678861
 H         1.875209        -2.250433        -1.010545
 H         4.710859        -2.257947         0.972713
 H         4.721462         0.237922         0.174463
 H         3.662280         1.426303        -1.802743
 H         3.541224        -0.420631        -2.244887
 H         2.547326         0.935436         1.738182
