19
Iteration:  3730
 C         0.019475         0.134786        -0.006437
 C         1.466167        -0.133470        -0.052125
 C         1.897972        -1.616303         0.170866
 C         3.232359        -1.119406         0.615678
 O         4.130472        -1.985270         1.218814
 C         3.669152         0.229604        -0.078501
 C         3.213228         0.272094        -1.504220
 O         1.803907         0.465582        -1.262525
 C         2.634747         0.346812         1.004202
 H        -0.498911        -0.164869         0.902963
 H        -0.039051         1.259354         0.319369
 H        -0.376701        -0.136890        -1.069638
 H         1.351551        -1.972854         1.034057
 H         1.896929        -2.290830        -0.664340
 H         4.988353        -2.041267         0.778281
 H         4.754547         0.611821         0.113036
 H         3.502942         1.138750        -2.024126
 H         3.334562        -0.665818        -2.003212
 H         2.676347         0.956248         1.889378
