19
Iteration:  1399
 C         0.134833         0.314110         0.296385
 C         1.432172        -0.225561        -0.074645
 C         1.910466        -1.693340         0.004487
 C         3.273703        -1.161451         0.630352
 O         4.108381        -1.812660         1.559807
 C         3.732255         0.062948        -0.191138
 C         3.157248         0.515517        -1.533191
 O         1.791234         0.230692        -1.502161
 C         2.646704         0.305717         0.732839
 H        -0.401676        -0.064902         1.142098
 H         0.133151         1.401082         0.454682
 H        -0.550901         0.043097        -0.496999
 H         1.404376        -2.287521         0.726345
 H         1.911523        -2.237969        -0.918504
 H         3.509533        -2.104453         2.290256
 H         4.717881         0.467488         0.176668
 H         3.259729         1.646772        -1.678830
 H         3.670530        -0.001811        -2.362593
 H         2.649834         0.774927         1.722412
