19
Iteration:   225charge 0 multiplicity 1
 C        -0.022667         0.212705         0.226320
 C         1.426237        -0.202906        -0.152534
 C         2.030315        -1.647148        -0.028807
 C         3.243222        -0.999641         0.630455
 O         3.983061        -1.875937         1.451385
 C         3.780087         0.083815        -0.092696
 C         3.241069         0.362792        -1.488514
 O         1.809300         0.349123        -1.364053
 C         2.612936         0.266752         0.839673
 H        -0.217981        -0.364437         1.183874
 H         0.024428         1.325855         0.353443
 H        -0.795497        -0.142234        -0.610269
 H         1.540726        -2.199522         0.856263
 H         2.176886        -2.265505        -0.904402
 H         4.931856        -1.599410         1.530295
 H         4.800494         0.418785         0.065554
 H         3.475930         1.400696        -1.952173
 H         3.414192        -0.324288        -2.338497
 H         2.371597         1.006674         1.580283
