19
Iteration:   931charge 0 multiplicity 1
 C         0.111304         0.197310         0.381438
 C         1.486522        -0.228415        -0.148577
 C         2.023591        -1.658628        -0.056104
 C         3.200764        -1.066295         0.662709
 O         4.039679        -1.850175         1.491872
 C         3.741938         0.145173        -0.145817
 C         3.221878         0.515752        -1.542354
 O         1.773010         0.238169        -1.470132
 C         2.605796         0.305245         0.804775
 H        -0.022561         0.110018         1.471323
 H         0.038894         1.254134         0.071857
 H        -0.747799        -0.200863        -0.104448
 H         1.338316        -2.132579         0.672982
 H         2.274940        -2.335143        -0.892833
 H         3.467955        -2.506670         1.962398
 H         4.830625         0.344040         0.042098
 H         3.294229         1.553345        -1.880578
 H         3.551893        -0.137165        -2.406303
 H         2.413119         1.065681         1.604846
