19
Iteration:  3217
 C         0.100962         0.187310         0.396647
 C         1.427803        -0.218688        -0.146081
 C         2.002452        -1.694773        -0.154985
 C         3.288748        -1.150796         0.612188
 O         4.018739        -1.842911         1.640967
 C         3.679157         0.198071        -0.163395
 C         3.209755         0.490951        -1.547717
 O         1.744071         0.437686        -1.540698
 C         2.633018         0.226043         0.856599
 H         0.120659        -0.189662         1.453085
 H        -0.023827         1.239720         0.595135
 H        -0.773800        -0.184047        -0.254171
 H         1.442156        -2.377880         0.373394
 H         2.265331        -2.156012        -1.071483
 H         4.130351        -2.740591         1.256154
 H         4.751020         0.346927         0.151821
 H         3.507965         1.525506        -1.676431
 H         3.672165        -0.340558        -2.107540
 H         2.733933         0.658954         1.800018
