19
Iteration:   454charge 0 multiplicity 1
 C        -0.065407         0.131087         0.260966
 C         1.458677        -0.158432        -0.121867
 C         2.002567        -1.638181         0.013572
 C         3.294032        -1.109900         0.591549
 O         3.998865        -1.827435         1.449213
 C         3.771352         0.132632        -0.088393
 C         3.281904         0.327334        -1.475811
 O         1.830177         0.393783        -1.421414
 C         2.502827         0.352025         0.819556
 H        -0.141556         0.196226         1.323178
 H        -0.279134         1.104564        -0.051329
 H        -0.815902        -0.554458        -0.128704
 H         1.497303        -2.320285         0.825368
 H         2.180671        -2.259999        -0.897149
 H         4.925512        -1.972840         1.135512
 H         4.744276         0.498737         0.141601
 H         3.685471         1.250196        -1.941457
 H         3.632617        -0.507356        -2.236828
 H         2.488633         0.817315         1.756587
