19
Iteration:  2698
 C         0.075782         0.022154         0.135694
 C         1.550021        -0.066656        -0.059835
 C         1.907525        -1.538465         0.005045
 C         3.259361        -1.127960         0.684267
 O         4.198755        -1.780192         1.453604
 C         3.710170         0.037279        -0.218189
 C         3.062011         0.198596        -1.575197
 O         1.764732         0.599412        -1.348748
 C         2.651182         0.235343         0.938654
 H        -0.209385        -0.292628         1.158498
 H        -0.245222         1.068213        -0.138175
 H        -0.351874        -0.510453        -0.695791
 H         1.327452        -2.137200         0.820187
 H         1.812025        -2.254690        -0.916250
 H         3.639908        -2.058507         2.212168
 H         4.751026         0.440877         0.009717
 H         3.684002         0.902492        -2.214447
 H         3.040824        -0.670292        -2.285028
 H         2.691321         1.042471         1.814874
