19
Iteration:  1384
 C        -0.021375         0.341788         0.247817
 C         1.484571        -0.145210        -0.151293
 C         1.950111        -1.724682         0.068393
 C         3.199272        -1.099937         0.629917
 O         4.133337        -1.792019         1.389672
 C         3.788690         0.124237        -0.121836
 C         3.269020         0.432881        -1.520570
 O         1.755629         0.193333        -1.458292
 C         2.602817         0.231349         0.900902
 H        -0.307005        -0.188306         1.296926
 H         0.243571         1.450644         0.412930
 H        -0.864232         0.128725        -0.556324
 H         1.298745        -2.139693         0.873600
 H         2.078988        -2.342257        -0.837779
 H         3.727396        -2.163303         2.186037
 H         4.832369         0.275572         0.106046
 H         3.543961         1.469586        -1.754217
 H         3.627513        -0.219760        -2.418930
 H         2.461817         1.124594         1.508421
