19
Iteration:  3762charge 0 multiplicity 1
 C        -0.070094         0.180674         0.272572
 C         1.424812        -0.092070        -0.069209
 C         1.973113        -1.606439        -0.030253
 C         3.270432        -1.123362         0.587395
 O         4.083049        -1.955083         1.410416
 C         3.709011         0.090617        -0.100764
 C         3.284256         0.331695        -1.462659
 O         1.778228         0.424455        -1.406474
 C         2.625177         0.311051         0.884943
 H        -0.407571        -0.476934         1.068263
 H        -0.065348         1.309422         0.506351
 H        -0.838354        -0.019706        -0.556892
 H         1.363363        -2.338090         0.557488
 H         2.090500        -2.117925        -1.000101
 H         5.015452        -1.761682         1.182375
 H         4.724172         0.605620         0.086627
 H         3.675481         1.252542        -1.829542
 H         3.390281        -0.380710        -2.325612
 H         2.806719         1.056355         1.634029
