19
Iteration:  4198
 C        -0.016393         0.199886         0.205304
 C         1.503122        -0.062833        -0.084961
 C         1.966883        -1.620254        -0.046466
 C         3.316403        -1.115114         0.619738
 O         4.085147        -1.906821         1.568052
 C         3.698456         0.122137        -0.167203
 C         3.169571         0.306684        -1.546444
 O         1.731695         0.427557        -1.392345
 C         2.692673         0.263402         0.867599
 H        -0.389806        -0.330870         1.122430
 H        -0.024406         1.253914         0.665344
 H        -0.450977        -0.032467        -0.819832
 H         1.444100        -2.166788         0.793991
 H         2.065463        -2.080332        -0.989041
 H         4.047666        -2.805975         1.208062
 H         4.704141         0.535053         0.126666
 H         3.540358         1.242409        -1.809960
 H         3.414346        -0.463048        -2.353224
 H         2.750618         1.140911         1.445860
