19
Iteration:  4636charge 0 multiplicity 1
 C        -0.021426         0.156480         0.083889
 C         1.412371        -0.029397        -0.002458
 C         1.956251        -1.499892         0.171871
 C         3.301100        -1.075594         0.591823
 O         4.043389        -1.974862         1.243416
 C         3.849093         0.073712        -0.104478
 C         3.156779         0.144580        -1.458386
 O         1.798680         0.473148        -1.377381
 C         2.655036         0.316255         0.936035
 H        -0.559241        -0.486722         0.786133
 H        -0.398462         1.214663        -0.014258
 H        -0.593911        -0.249945        -0.951117
 H         1.401447        -1.951563         1.026987
 H         1.905768        -2.102671        -0.699245
 H         4.728873        -1.450089         1.664210
 H         4.762719         0.705721         0.179558
 H         3.511419         0.991299        -2.012766
 H         3.443119        -0.823844        -1.980215
 H         2.755654         0.894828         1.888908
