19
Iteration:  2337
 C         0.148189         0.135600         0.491764
 C         1.452764        -0.193009        -0.112882
 C         2.026993        -1.665861        -0.071451
 C         3.239867        -1.092210         0.650973
 O         3.882170        -1.826189         1.660262
 C         3.799449         0.096881        -0.250198
 C         3.208987         0.411516        -1.596507
 O         1.740316         0.445252        -1.508708
 C         2.655316         0.315438         0.698865
 H        -0.061789        -0.527315         1.369071
 H         0.029903         1.212361         0.797300
 H        -0.681327        -0.233523        -0.212118
 H         1.547218        -2.271282         0.677678
 H         2.340137        -2.227023        -1.027314
 H         4.302750        -2.608612         1.242932
 H         4.855911         0.349276        -0.048724
 H         3.435532         1.428610        -1.840693
 H         3.462892        -0.327234        -2.328483
 H         2.561995         0.956231         1.584962
