19
Iteration:  1173
 C        -0.070577         0.090354         0.075982
 C         1.446969        -0.067047        -0.096180
 C         1.872693        -1.645261         0.047620
 C         3.201342        -1.030654         0.747020
 O         4.272501        -1.879321         1.246080
 C         3.717971         0.114598        -0.098063
 C         3.243867         0.158844        -1.557843
 O         1.810335         0.539712        -1.319480
 C         2.611989         0.363249         0.968260
 H        -0.429698        -0.059973         1.066814
 H        -0.333261         1.076420        -0.237481
 H        -0.352205        -0.846561        -0.393576
 H         1.281291        -1.876996         0.861087
 H         1.795728        -2.266334        -0.746650
 H         3.984115        -2.437286         1.974984
 H         4.735732         0.577704         0.055625
 H         3.587791         0.998936        -2.015152
 H         3.586909        -0.740717        -1.985601
 H         2.674693         0.959510         1.913750
