19
Iteration:  3251charge 0 multiplicity 1
 C         0.068347         0.023569         0.323015
 C         1.494412        -0.181937        -0.064626
 C         1.975961        -1.693336        -0.142267
 C         3.194298        -1.102877         0.559437
 O         3.931340        -1.739937         1.632154
 C         3.770638         0.038674        -0.241898
 C         3.197036         0.371779        -1.539524
 O         1.790640         0.592565        -1.277656
 C         2.687944         0.244226         0.771169
 H        -0.358732        -0.794169         0.937235
 H         0.018668         1.065961         0.606782
 H        -0.630771        -0.217232        -0.578963
 H         1.375898        -2.361693         0.400513
 H         2.090267        -2.098510        -1.128674
 H         4.684210        -2.159792         1.153729
 H         4.840479         0.427605         0.140568
 H         3.704686         1.267136        -1.961604
 H         3.359215        -0.349338        -2.425532
 H         2.833159         0.937286         1.580074
