19
Iteration:   553
 C        -0.055616         0.163428         0.161424
 C         1.507673        -0.055013        -0.140285
 C         1.941489        -1.590228         0.026131
 C         3.259068        -1.047678         0.708507
 O         4.238383        -1.808326         1.401972
 C         3.703851         0.137794        -0.086523
 C         3.211522         0.190821        -1.546332
 O         1.814562         0.454483        -1.425230
 C         2.529653         0.216020         0.950058
 H        -0.321040        -0.477886         0.986435
 H        -0.205119         1.168135         0.481987
 H        -0.781679        -0.115986        -0.669191
 H         1.275392        -2.105229         0.793305
 H         2.200128        -2.205222        -0.839501
 H         3.842621        -2.701220         1.359546
 H         4.660648         0.504469         0.344609
 H         3.579690         0.996924        -2.176805
 H         3.396102        -0.833440        -2.146205
 H         2.484354         1.009975         1.728330
