19
Iteration:  2981charge 0 multiplicity 1
 C        -0.032234         0.172892         0.149461
 C         1.417421        -0.150508        -0.047932
 C         1.970917        -1.584685         0.075820
 C         3.266381        -1.021310         0.633953
 O         4.136346        -1.974402         1.191450
 C         3.722204         0.240868        -0.055227
 C         3.254990         0.298695        -1.463085
 O         1.817760         0.352748        -1.444026
 C         2.568438         0.280516         0.990050
 H        -0.154620        -0.129643         1.209537
 H        -0.224387         1.254178         0.133387
 H        -0.749174        -0.116627        -0.586744
 H         1.315858        -1.905428         0.900575
 H         1.907226        -2.264765        -0.714586
 H         4.392616        -1.701573         2.089760
 H         4.763444         0.421971         0.132321
 H         3.576119         1.129691        -2.091728
 H         3.620393        -0.708623        -1.924843
 H         2.412697         0.875092         1.851776
