19
Iteration:   845
 C        -0.045505         0.111939         0.108963
 C         1.445397        -0.146319        -0.101155
 C         1.952603        -1.583759         0.102737
 C         3.297129        -1.084228         0.636860
 O         4.183449        -1.887828         1.458908
 C         3.795115         0.103214        -0.153186
 C         3.132991         0.337000        -1.574694
 O         1.739764         0.447758        -1.380364
 C         2.653351         0.334410         0.885537
 H        -0.367396        -0.379346         0.964368
 H        -0.113447         1.164504         0.219972
 H        -0.574455        -0.192902        -0.735223
 H         1.424918        -2.213630         0.882447
 H         1.940671        -2.267674        -0.827714
 H         3.688532        -2.432686         2.100450
 H         4.792805         0.414013         0.112772
 H         3.561925         1.234953        -1.923856
 H         3.514165        -0.384251        -2.290098
 H         2.732563         0.985701         1.744357
