19
Iteration:    96charge 0 multiplicity 1
 C        -0.048286         0.156313         0.087871
 C         1.400122        -0.169477        -0.103962
 C         1.928514        -1.655102         0.038603
 C         3.264709        -1.131869         0.639060
 O         4.148534        -1.784051         1.502629
 C         3.769336         0.163928        -0.161203
 C         3.223277         0.226899        -1.578494
 O         1.883763         0.522090        -1.226768
 C         2.564030         0.249611         0.863389
 H        -0.504058        -0.107858         1.056544
 H        -0.323785         1.173977        -0.001877
 H        -0.661084        -0.507739        -0.655744
 H         1.350758        -2.090859         0.881961
 H         2.034539        -2.197388        -0.942111
 H         4.401932        -2.522308         0.927331
 H         4.641308         0.708930         0.150415
 H         3.506136         1.089003        -2.198637
 H         3.394514        -0.606141        -2.316559
 H         2.570180         0.925861         1.641604
