19
Iteration:  2112
 C         0.022895         0.084101         0.182348
 C         1.465002        -0.135781        -0.120673
 C         1.937623        -1.584770         0.126053
 C         3.229232        -1.090363         0.686357
 O         4.082349        -1.924584         1.402722
 C         3.729496         0.097714        -0.130263
 C         3.226018         0.283266        -1.602025
 O         1.799032         0.503914        -1.378418
 C         2.650529         0.416981         0.909677
 H        -0.399938        -0.225263         1.170900
 H        -0.334635         1.150509         0.101845
 H        -0.550155        -0.478877        -0.486592
 H         1.360060        -2.097586         0.918683
 H         2.064399        -2.225913        -0.681340
 H         4.325961        -2.626420         0.763713
 H         4.648634         0.512675         0.139219
 H         3.679307         1.208070        -2.143007
 H         3.405221        -0.602937        -2.181096
 H         2.711381         1.019683         1.761475
