19
Iteration:   705charge 0 multiplicity 1
 C        -0.017568         0.140273         0.140718
 C         1.460600        -0.107126        -0.076631
 C         1.994449        -1.642465         0.071170
 C         3.218547        -1.048707         0.637101
 O         4.191718        -1.835113         1.315370
 C         3.783101         0.096077        -0.071447
 C         3.233253         0.193190        -1.453864
 O         1.785099         0.494675        -1.404203
 C         2.522908         0.383888         0.894808
 H        -0.210315        -0.733786         0.778435
 H        -0.351887         1.045227         0.711148
 H        -0.594217         0.018109        -0.878043
 H         1.416169        -2.186525         0.732861
 H         2.137552        -2.219590        -0.782094
 H         3.679867        -2.503629         1.781325
 H         4.807965         0.331192         0.209693
 H         3.560064         0.862799        -2.232619
 H         3.295604        -0.739652        -1.895157
 H         2.435100         1.153760         1.657144
