19
Iteration:  4212charge 0 multiplicity 1
 C         0.054233         0.310087         0.285253
 C         1.414511        -0.175327        -0.064215
 C         1.982552        -1.646163        -0.038211
 C         3.232090        -1.157299         0.677112
 O         4.127959        -1.838180         1.560304
 C         3.778323         0.010533        -0.185793
 C         3.212407         0.437088        -1.571044
 O         1.756663         0.363840        -1.440233
 C         2.593796         0.277506         0.832020
 H        -0.401531        -0.318059         1.018571
 H        -0.090641         1.426225         0.372173
 H        -0.732392         0.177196        -0.539375
 H         1.338400        -2.341448         0.450777
 H         2.144370        -2.000995        -1.022190
 H         4.255591        -2.743565         1.219560
 H         4.719625         0.374039         0.054661
 H         3.415069         1.475334        -1.806786
 H         3.498963        -0.281620        -2.311565
 H         2.626524         0.894196         1.794286
