19
Iteration:  2085
 C        -0.153289         0.239141         0.068845
 C         1.397212        -0.108191        -0.048240
 C         1.861917        -1.540065         0.137719
 C         3.330957        -1.128128         0.603468
 O         4.220307        -1.860117         1.327056
 C         3.779019         0.096603        -0.078348
 C         3.200275         0.217488        -1.473861
 O         1.812601         0.407168        -1.325536
 C         2.667732         0.311132         0.914494
 H        -0.656522        -0.188115         0.927137
 H        -0.448286         1.265497        -0.136650
 H        -0.713063        -0.400702        -0.745681
 H         1.385826        -2.111594         0.941079
 H         1.908812        -2.074040        -0.884226
 H         4.606890        -2.581769         0.788348
 H         4.758209         0.662187         0.142405
 H         3.534329         1.093637        -1.966533
 H         3.350552        -0.779681        -2.008013
 H         2.887044         1.060343         1.802436
