19
Iteration:  1732
 C         0.105784         0.407723         0.184528
 C         1.482869        -0.192307        -0.081555
 C         1.858039        -1.763190         0.158561
 C         3.249508        -1.216366         0.634054
 O         4.219112        -1.722888         1.415236
 C         3.676448        -0.007131        -0.189177
 C         3.160656         0.556346        -1.486329
 O         1.779633         0.226331        -1.486004
 C         2.596442         0.192736         0.856345
 H        -0.151365        -0.023294         1.175093
 H         0.053226         1.482358        -0.181434
 H        -0.586143        -0.119315        -0.552473
 H         1.258696        -2.391877         0.770545
 H         1.780997        -2.196078        -0.838357
 H         3.927543        -1.837866         2.337006
 H         4.654194         0.284903         0.019400
 H         3.327552         1.653783        -1.461068
 H         3.753561         0.197374        -2.322117
 H         2.590577         0.900754         1.628987
