19
Iteration:  3734
 C         0.046962         0.150068         0.014907
 C         1.482259        -0.129097        -0.054884
 C         1.912246        -1.583119         0.167142
 C         3.224140        -1.091231         0.623661
 O         4.120268        -1.992443         1.230050
 C         3.707324         0.227950        -0.046717
 C         3.201145         0.281812        -1.531492
 O         1.804967         0.445659        -1.262402
 C         2.608117         0.324343         0.990045
 H        -0.542509        -0.316546         0.847732
 H         0.000181         1.190358         0.299956
 H        -0.340007        -0.142962        -0.942126
 H         1.279596        -2.044357         0.912636
 H         1.909960        -2.323117        -0.667865
 H         4.973025        -1.952971         0.752337
 H         4.675579         0.478841         0.115619
 H         3.479290         1.181715        -2.198682
 H         3.145411        -0.655753        -2.106128
 H         2.570214         0.914847         1.924705
