19
Iteration:  3756
 C        -0.054240         0.197213         0.221100
 C         1.431158        -0.094260        -0.037338
 C         1.977910        -1.604165        -0.010504
 C         3.251212        -1.109084         0.639892
 O         4.091730        -1.956176         1.353803
 C         3.753858         0.092047        -0.097764
 C         3.254760         0.309323        -1.490069
 O         1.773621         0.437728        -1.408146
 C         2.613431         0.300697         0.906324
 H        -0.468077        -0.370247         1.087683
 H        -0.250289         1.188300         0.613635
 H        -0.542056        -0.086890        -0.708147
 H         1.462829        -2.268743         0.674051
 H         2.004526        -2.147220        -0.970565
 H         5.023090        -1.841937         1.121617
 H         4.627066         0.580259         0.155557
 H         3.586073         1.329115        -1.857251
 H         3.465984        -0.520346        -2.159760
 H         2.645245         1.077959         1.700088
