19
Iteration:  2200
 C         0.109751         0.139481         0.337266
 C         1.505338        -0.173328        -0.164911
 C         1.970014        -1.682019        -0.049516
 C         3.174038        -1.117151         0.665831
 O         3.988290        -1.809301         1.551475
 C         3.742077         0.112383        -0.186269
 C         3.193248         0.427794        -1.554491
 O         1.767560         0.438834        -1.427996
 C         2.649306         0.260078         0.868518
 H        -0.115712        -0.511715         1.231453
 H         0.101209         1.240513         0.546533
 H        -0.486124        -0.275985        -0.477079
 H         1.359378        -2.245733         0.686318
 H         2.163959        -2.093941        -0.972132
 H         4.419254        -2.544259         1.083775
 H         4.864010         0.419642        -0.121672
 H         3.574632         1.408924        -1.998042
 H         3.417691        -0.405169        -2.170685
 H         2.615761         1.082973         1.590303
