19
Iteration:  3303charge 0 multiplicity 1
 C        -0.001171         0.194496         0.143622
 C         1.468185        -0.210295        -0.025371
 C         1.989590        -1.680982         0.015701
 C         3.237418        -1.055272         0.666480
 O         4.103084        -1.909244         1.367061
 C         3.694544         0.135085        -0.074111
 C         3.185822         0.337238        -1.507096
 O         1.817990         0.433742        -1.324823
 C         2.594964         0.372299         0.907857
 H        -0.264706        -0.179410         1.203257
 H        -0.272356         1.222970         0.019353
 H        -0.639341        -0.307969        -0.671482
 H         1.288418        -2.289665         0.588865
 H         2.341707        -2.102595        -1.022336
 H         4.634598        -2.422862         0.722695
 H         4.821327         0.364815         0.199215
 H         3.582803         1.236829        -2.170964
 H         3.520946        -0.452738        -2.251183
 H         2.356408         1.179692         1.560743
