19
Iteration:   715
 C         0.014033         0.051773         0.091462
 C         1.475599        -0.045871        -0.159016
 C         1.904332        -1.584243         0.054657
 C         3.238078        -1.068505         0.737660
 O         4.222965        -1.829631         1.309993
 C         3.785878         0.086740        -0.052360
 C         3.127812         0.182066        -1.507964
 O         1.790124         0.522442        -1.352411
 C         2.603304         0.344531         0.906169
 H        -0.428857        -0.745271         0.692766
 H        -0.411566         0.939322         0.602521
 H        -0.582450        -0.085139        -0.903507
 H         1.211832        -1.917310         0.758416
 H         2.037907        -2.278724        -0.749893
 H         3.877218        -2.509638         1.893094
 H         4.759890         0.509232         0.254670
 H         3.769936         0.862460        -2.084314
 H         3.192025        -0.808599        -1.948176
 H         2.725380         1.113376         1.679315
