19
Iteration:   826
 C         0.077025         0.172149         0.312851
 C         1.499503        -0.137847        -0.066652
 C         1.933780        -1.666533        -0.010982
 C         3.206993        -1.105758         0.635020
 O         4.056307        -1.775294         1.429765
 C         3.724619         0.153990        -0.122135
 C         3.252977         0.441667        -1.563423
 O         1.799828         0.272548        -1.470218
 C         2.621102         0.267053         0.829283
 H        -0.003106        -0.168257         1.371025
 H        -0.158388         1.257968         0.392700
 H        -0.465466        -0.586839        -0.375028
 H         1.307093        -2.085591         0.766948
 H         1.983070        -2.324492        -0.882295
 H         3.600840        -2.500098         1.917820
 H         4.716564         0.529824         0.202901
 H         3.504665         1.493812        -1.903927
 H         3.645840        -0.320000        -2.317762
 H         2.522029         1.002072         1.666326
