19
Iteration:  2068
 C         0.055610         0.236235         0.051427
 C         1.461658        -0.103205         0.018181
 C         1.906089        -1.643738         0.053946
 C         3.186732        -1.105884         0.651345
 O         4.205434        -1.831598         1.398583
 C         3.707643         0.170365        -0.143443
 C         3.168498         0.278110        -1.564883
 O         1.735241         0.361585        -1.340870
 C         2.656007         0.247850         0.990638
 H        -0.445451         0.094230         1.018360
 H         0.036407         1.346750         0.014199
 H        -0.470864        -0.186481        -0.752293
 H         1.312953        -2.050326         0.887074
 H         1.749404        -2.237617        -0.813530
 H         4.675691        -2.254924         0.643184
 H         4.740069         0.183127         0.071192
 H         3.615618         1.199901        -2.104927
 H         3.484676        -0.595638        -2.114928
 H         2.683266         0.815858         1.916782
