19
Iteration:   513
 C         0.045089         0.226566         0.220356
 C         1.446090        -0.154356        -0.105337
 C         2.028580        -1.708995         0.033254
 C         3.271882        -1.120023         0.569354
 O         4.035418        -1.748218         1.521840
 C         3.825410        -0.033174        -0.221139
 C         3.179614         0.563680        -1.509660
 O         1.771550         0.246971        -1.433426
 C         2.615312         0.209422         0.834131
 H        -0.405289        -0.434867         0.962833
 H         0.079692         1.275699         0.619351
 H        -0.661235         0.304089        -0.607411
 H         1.435533        -2.107519         0.930727
 H         2.012179        -2.394951        -0.883871
 H         3.512152        -2.074058         2.284033
 H         4.773582         0.504187         0.033482
 H         3.342367         1.689156        -1.404211
 H         3.485599         0.164362        -2.446586
 H         2.715334         1.035828         1.604664
