19
Iteration:  2495
 C         0.014532         0.227007         0.308737
 C         1.477915        -0.206618        -0.074378
 C         2.013792        -1.713423        -0.005681
 C         3.198025        -1.068259         0.671522
 O         4.099282        -1.776223         1.504772
 C         3.826711         0.022965        -0.223377
 C         3.170208         0.454965        -1.579537
 O         1.749110         0.372013        -1.421338
 C         2.656026         0.227875         0.785410
 H        -0.462415        -0.129496         1.240356
 H         0.162809         1.342787         0.261960
 H        -0.581873         0.089970        -0.595409
 H         1.388168        -2.309989         0.738959
 H         2.022563        -2.327309        -0.931391
 H         3.730679        -2.499115         2.053593
 H         4.621917         0.490484         0.218549
 H         3.433454         1.500860        -1.712671
 H         3.336725        -0.264671        -2.433464
 H         2.632951         0.988147         1.595921
