19
Iteration:  2542charge 0 multiplicity 1
 C        -0.110833         0.069909         0.273917
 C         1.426327        -0.136650        -0.107880
 C         1.951306        -1.517431         0.034697
 C         3.262519        -1.027460         0.616006
 O         4.149032        -1.889482         1.370266
 C         3.797377         0.133096        -0.093098
 C         3.325062         0.118827        -1.585269
 O         1.778718         0.570910        -1.411999
 C         2.608364         0.323449         0.863157
 H        -0.099713        -0.424966         1.209397
 H        -0.399299         1.074428         0.370588
 H        -0.825408        -0.457234        -0.445695
 H         1.344951        -2.237711         0.740701
 H         2.032803        -2.113110        -0.888124
 H         3.917332        -2.128155         2.274880
 H         4.834010         0.578195         0.231361
 H         3.595796         0.879070        -2.346327
 H         3.145070        -0.946550        -1.856442
 H         2.636668         1.069221         1.716808
