19
Iteration:   150charge 0 multiplicity 1
 C        -0.009415         0.105076         0.238270
 C         1.417058        -0.167138        -0.073846
 C         1.985434        -1.606790         0.025223
 C         3.226181        -1.050907         0.619911
 O         3.998031        -1.889493         1.505064
 C         3.768199         0.117138        -0.130244
 C         3.277213         0.394900        -1.575637
 O         1.842681         0.382093        -1.415588
 C         2.589596         0.277157         0.864590
 H        -0.135379        -0.220266         1.298486
 H        -0.175068         1.181634         0.120524
 H        -0.696996        -0.434965        -0.546675
 H         1.509672        -2.058596         0.900626
 H         1.882449        -2.102609        -0.921073
 H         4.862050        -1.881573         1.085675
 H         4.755363         0.511932         0.066825
 H         3.544249         1.410693        -1.945675
 H         3.505831        -0.412848        -2.324590
 H         2.581406         1.037630         1.586691
