19
Iteration:   700charge 0 multiplicity 1
 C        -0.051090         0.149497         0.187763
 C         1.428204        -0.113521        -0.051427
 C         2.035832        -1.640281         0.053405
 C         3.234928        -1.051515         0.642740
 O         4.162486        -1.834072         1.322545
 C         3.719006         0.128340        -0.079298
 C         3.286378         0.204819        -1.493417
 O         1.807030         0.463657        -1.400716
 C         2.537530         0.369406         0.870477
 H        -0.332510        -0.723731         0.791121
 H        -0.111631         1.175334         0.580091
 H        -0.521001         0.112503        -0.726799
 H         1.506231        -2.332461         0.850045
 H         2.102032        -2.230087        -0.969828
 H         3.624643        -2.512137         1.792098
 H         4.777292         0.333990         0.168820
 H         3.600454         1.074866        -2.151042
 H         3.380236        -0.898600        -1.939692
 H         2.319689         1.127347         1.656989
