19
Iteration:   971charge 0 multiplicity 1
 C        -0.010128         0.190103         0.330946
 C         1.456999        -0.190232        -0.102240
 C         1.959636        -1.660240         0.014067
 C         3.235125        -1.131904         0.567949
 O         4.059325        -1.797678         1.530529
 C         3.827399         0.102194        -0.254909
 C         3.212914         0.623320        -1.537140
 O         1.802641         0.229201        -1.421714
 C         2.628556         0.207400         0.748502
 H        -0.098219         0.315365         1.489778
 H         0.039936         1.242640        -0.109847
 H        -0.669094        -0.548863        -0.177787
 H         1.419849        -2.127922         0.853667
 H         1.967994        -2.294583        -0.831474
 H         3.462317        -2.208680         2.165584
 H         4.809987         0.158618         0.100661
 H         3.387538         1.668485        -1.353066
 H         3.691375         0.120640        -2.331188
 H         2.614412         0.826358         1.603714
