19
Iteration:   919
 C        -0.015128         0.204821         0.301167
 C         1.452044        -0.218936        -0.151424
 C         1.975634        -1.696517        -0.017404
 C         3.252627        -1.078306         0.638771
 O         4.102882        -1.797750         1.432223
 C         3.736126         0.101533        -0.137340
 C         3.218764         0.363031        -1.563368
 O         1.827344         0.345817        -1.414391
 C         2.606230         0.345541         0.853783
 H         0.021747        -0.186591         1.369521
 H        -0.062841         1.315258         0.401885
 H        -0.854660        -0.288752        -0.180982
 H         1.409264        -2.364316         0.648613
 H         1.928177        -2.092718        -1.011299
 H         3.553933        -2.395349         1.953278
 H         4.609234         0.610282         0.260959
 H         3.627237         1.366620        -1.794640
 H         3.691242        -0.357937        -2.286296
 H         2.622641         1.119265         1.622278
