19
Iteration:  2088charge 0 multiplicity 1
 C        -0.174513         0.221823         0.063067
 C         1.392965        -0.085540        -0.040234
 C         1.894268        -1.549208         0.144856
 C         3.332539        -1.129701         0.615147
 O         4.213041        -1.871353         1.331922
 C         3.821412         0.118764        -0.093119
 C         3.191378         0.200250        -1.470524
 O         1.820716         0.418708        -1.322285
 C         2.632232         0.293442         0.882779
 H        -0.671892        -0.137072         0.958787
 H        -0.565615         1.242043        -0.030893
 H        -0.717352        -0.401240        -0.669786
 H         1.372606        -2.039364         0.912347
 H         1.888689        -2.034944        -0.763958
 H         4.513793        -2.577225         0.699330
 H         4.807830         0.567645         0.113381
 H         3.656327         1.129730        -1.948590
 H         3.388570        -0.699600        -1.999643
 H         2.850416         1.107213         1.723894
