19
Iteration:  2985charge 0 multiplicity 1
 C        -0.005832         0.165822         0.157613
 C         1.457908        -0.121731        -0.095597
 C         1.977227        -1.578838         0.074216
 C         3.235621        -1.032937         0.645798
 O         4.136437        -1.971988         1.193225
 C         3.711513         0.243309        -0.067668
 C         3.220903         0.285658        -1.442802
 O         1.800323         0.357360        -1.441996
 C         2.592333         0.274409         0.972839
 H        -0.273009        -0.089488         1.213141
 H        -0.207549         1.349580         0.155092
 H        -0.708038        -0.284495        -0.610985
 H         1.352028        -1.962246         0.854917
 H         1.938836        -2.366147        -0.729587
 H         4.382192        -1.649848         2.077199
 H         4.844444         0.465246         0.189195
 H         3.618319         1.175542        -1.936056
 H         3.500026        -0.728890        -1.702824
 H         2.431398         0.842743         1.889414
