19
Iteration:  1811charge 0 multiplicity 1
 C         0.018022         0.113393         0.299424
 C         1.468088        -0.086030        -0.150466
 C         2.002672        -1.693480        -0.032651
 C         3.175756        -1.091938         0.730844
 O         4.113895        -1.781551         1.410435
 C         3.763172         0.059661        -0.145225
 C         3.144241         0.218674        -1.584690
 O         1.818238         0.555308        -1.405216
 C         2.625841         0.342192         0.841808
 H        -0.015304        -0.325119         1.379832
 H        -0.240157         1.222220         0.356805
 H        -0.557951        -0.478504        -0.413704
 H         1.395114        -2.327574         0.571280
 H         2.330944        -2.259107        -0.891083
 H         3.657079        -2.377084         2.029499
 H         4.810428         0.189226         0.270875
 H         3.746902         0.991146        -2.160631
 H         3.174595        -0.760829        -2.009802
 H         2.553702         1.159957         1.635073
