19
Iteration:   333
 C         0.058317         0.249589         0.403624
 C         1.382464        -0.174811        -0.148118
 C         2.029478        -1.753611        -0.082974
 C         3.246911        -1.185351         0.590458
 O         3.974312        -1.793357         1.611787
 C         3.769247         0.139310        -0.152286
 C         3.266176         0.482727        -1.564971
 O         1.859923         0.274993        -1.500172
 C         2.477693         0.271781         0.804670
 H        -0.072510        -0.106630         1.422689
 H         0.047541         1.313152         0.475160
 H        -0.737251         0.043730        -0.253243
 H         1.441535        -2.461619         0.709463
 H         2.137431        -2.253276        -1.115985
 H         4.873324        -1.827066         1.256993
 H         4.791121         0.431625         0.235096
 H         3.414116         1.588780        -1.666611
 H         3.732758        -0.071187        -2.356484
 H         2.394072         1.021828         1.666775
