19
Iteration:  4813charge 0 multiplicity 1
 C        -0.006393         0.389365         0.117527
 C         1.443428        -0.124546        -0.070575
 C         1.824995        -1.643911         0.176978
 C         3.241347        -1.065426         0.668064
 O         4.247000        -1.898681         1.275741
 C         3.683884         0.091545        -0.104716
 C         3.236346         0.302712        -1.539413
 O         1.833554         0.290632        -1.385695
 C         2.593179         0.239859         0.890424
 H        -0.448751         0.140649         1.094895
 H         0.042338         1.486423         0.241164
 H        -0.590584         0.153416        -0.837072
 H         1.295923        -2.149852         0.978859
 H         1.790238        -2.097933        -0.775435
 H         4.092681        -2.194235         2.177607
 H         4.800358         0.296550         0.042378
 H         3.519885         1.275013        -1.981948
 H         3.460918        -0.596410        -2.262167
 H         2.693296         0.883174         1.782145
