19
Iteration:  3729charge 0 multiplicity 1
 C         0.009422         0.135536        -0.010034
 C         1.461692        -0.135062        -0.048242
 C         1.896860        -1.622533         0.168546
 C         3.237044        -1.123078         0.615098
 O         4.132755        -1.983556         1.217281
 C         3.663039         0.226615        -0.086292
 C         3.212765         0.273729        -1.492651
 O         1.803522         0.471028        -1.265278
 C         2.641406         0.349212         1.003936
 H        -0.489459        -0.154767         0.909337
 H        -0.056649         1.255903         0.284963
 H        -0.388905        -0.118792        -1.058333
 H         1.349713        -1.973151         1.096829
 H         1.887334        -2.296070        -0.683077
 H         4.993884        -2.056880         0.778091
 H         4.761607         0.635548         0.118798
 H         3.524254         1.136048        -1.993337
 H         3.406663        -0.706515        -2.003974
 H         2.701572         0.974252         1.883826
