19
Iteration:  3314charge 0 multiplicity 1
 C         0.007366         0.236479         0.177389
 C         1.447514        -0.136888        -0.080373
 C         2.028363        -1.677977         0.002932
 C         3.128530        -1.072184         0.699304
 O         4.138116        -1.860235         1.323669
 C         3.731756         0.137062        -0.061715
 C         3.243549         0.372163        -1.512085
 O         1.806818         0.310935        -1.354009
 C         2.547679         0.322427         0.921993
 H        -0.391001         0.187234         1.239361
 H        -0.021468         1.283757        -0.083899
 H        -0.675143        -0.424585        -0.470893
 H         1.527602        -2.386126         0.673673
 H         2.161783        -2.223221        -1.042984
 H         4.515187        -2.309655         0.533211
 H         4.808169         0.300842         0.395360
 H         3.508984         1.469359        -1.788192
 H         3.449393        -0.467648        -2.174331
 H         2.519796         0.935798         1.806265
