19
Iteration:  1775
 C        -0.071558         0.076924         0.226735
 C         1.431692         0.004509         0.016596
 C         1.968280        -1.529717         0.096342
 C         3.287840        -0.998796         0.605254
 O         4.090793        -1.917340         1.366568
 C         3.809416         0.176275        -0.108945
 C         3.219076         0.190720        -1.565338
 O         1.828982         0.389357        -1.479590
 C         2.637394         0.332859         0.900148
 H        -0.268059        -0.546942         1.193125
 H        -0.532764         1.205476         0.296379
 H        -0.706800        -0.449598        -0.586004
 H         1.532944        -2.181280         0.900824
 H         2.052925        -2.171769        -0.836603
 H         3.509300        -2.584153         1.758987
 H         4.731119         0.580271         0.207914
 H         3.648914         0.929240        -2.225834
 H         3.394388        -0.771660        -2.164931
 H         2.684482         1.163495         1.577959
