19
Iteration:  2782charge 0 multiplicity 1
 C         0.010181         0.340104         0.268803
 C         1.429991        -0.226388        -0.087593
 C         1.937279        -1.736787         0.096067
 C         3.169044        -1.083155         0.639302
 O         4.171014        -1.831360         1.380477
 C         3.693057         0.117632        -0.171256
 C         3.237518         0.562553        -1.550747
 O         1.829618         0.188538        -1.483976
 C         2.616475         0.254005         0.826570
 H        -0.430519         0.007300         1.243596
 H         0.206237         1.389862         0.404381
 H        -0.842665        -0.119093        -0.338601
 H         1.484750        -2.236140         0.946779
 H         2.119458        -2.250083        -0.783220
 H         3.832692        -2.221556         2.203936
 H         4.727062         0.187747         0.342513
 H         3.446843         1.642668        -1.575166
 H         3.730718         0.028071        -2.409994
 H         2.735675         0.862841         1.719633
