19
Iteration:  3706
 C        -0.155969         0.212739         0.077879
 C         1.398706        -0.084252        -0.010883
 C         1.911307        -1.568505         0.123758
 C         3.262317        -1.142778         0.649646
 O         4.204756        -1.962578         1.290966
 C         3.821762         0.076972        -0.075441
 C         3.260155         0.386578        -1.503794
 O         1.807394         0.419773        -1.349896
 C         2.572315         0.247673         0.916708
 H        -0.619716         0.057242         1.066693
 H        -0.406491         1.282616        -0.046839
 H        -0.459986        -0.439099        -0.778457
 H         1.400792        -2.087135         1.026785
 H         1.932252        -2.159049        -0.804408
 H         4.967657        -2.031731         0.696025
 H         4.871067         0.390777         0.335803
 H         3.538311         1.335179        -1.864243
 H         3.313821        -0.383302        -2.233103
 H         2.563232         0.924606         1.780557
