19
Iteration:  2650charge 0 multiplicity 1
 C         0.072268         0.254569         0.265410
 C         1.486780        -0.102057        -0.086608
 C         1.942632        -1.643280         0.083939
 C         3.235374        -1.106096         0.710670
 O         4.177093        -1.853276         1.349089
 C         3.746995         0.136643        -0.144957
 C         3.226412         0.391686        -1.542648
 O         1.747307         0.218800        -1.480775
 C         2.522172         0.311852         0.879451
 H        -0.178334        -0.279970         1.186369
 H        -0.106407         1.327442         0.355708
 H        -0.627406        -0.088560        -0.634929
 H         1.313233        -2.282605         0.799631
 H         2.002532        -2.191300        -0.844827
 H         3.741751        -2.287439         2.110304
 H         4.703047         0.479658         0.225014
 H         3.402802         1.350932        -1.950532
 H         3.725765        -0.151163        -2.337294
 H         2.585976         1.099185         1.574571
