19
Iteration:  2326
 C         0.181808         0.164196         0.469189
 C         1.535864        -0.209962        -0.148324
 C         2.013042        -1.760525        -0.024787
 C         3.204476        -1.073541         0.573806
 O         3.819517        -1.797961         1.592581
 C         3.820419         0.124532        -0.208531
 C         3.180232         0.431888        -1.567841
 O         1.745243         0.360622        -1.402203
 C         2.659563         0.336177         0.701332
 H         0.152471        -0.395210         1.434865
 H         0.058135         1.260931         0.709527
 H        -0.699129        -0.062639        -0.246018
 H         1.312119        -2.397816         0.442381
 H         2.158228        -2.287109        -1.059708
 H         4.569162        -2.305043         1.184965
 H         4.744587         0.554103         0.156875
 H         3.521896         1.364196        -1.967778
 H         3.533977        -0.220440        -2.338018
 H         2.597399         1.083250         1.468593
