19
Iteration:  1247
 C         0.176979         0.196901         0.443957
 C         1.505355        -0.226624        -0.192096
 C         1.959497        -1.646566        -0.140020
 C         3.221055        -1.084469         0.624890
 O         4.034275        -1.775806         1.544770
 C         3.741046         0.140822        -0.132736
 C         3.244958         0.395502        -1.549337
 O         1.730791         0.288341        -1.499325
 C         2.574596         0.221055         0.806482
 H        -0.144095        -0.426522         1.216205
 H         0.359919         1.217714         0.868108
 H        -0.553255         0.237279        -0.365220
 H         1.273812        -2.204031         0.603753
 H         2.111597        -2.238581        -1.148414
 H         3.597386        -1.749962         2.425449
 H         4.767274         0.515340         0.145514
 H         3.548912         1.487594        -1.596766
 H         3.508704        -0.141285        -2.532873
 H         2.347645         0.884714         1.680506
