19
Iteration:   703
 C        -0.033737         0.145392         0.159246
 C         1.447402        -0.110683        -0.062056
 C         2.014530        -1.642283         0.067579
 C         3.222401        -1.048975         0.634865
 O         4.181058        -1.834767         1.317908
 C         3.755876         0.106244        -0.076593
 C         3.259377         0.197288        -1.463754
 O         1.792481         0.484131        -1.405622
 C         2.526414         0.378015         0.883647
 H        -0.228291        -0.738573         0.770667
 H        -0.252691         1.111367         0.659779
 H        -0.561348         0.056148        -0.816649
 H         1.459570        -2.253201         0.778194
 H         2.124623        -2.230077        -0.869732
 H         3.646088        -2.510918         1.784385
 H         4.826920         0.326974         0.195256
 H         3.558606         0.965785        -2.222322
 H         3.320183        -0.824300        -1.904692
 H         2.370326         1.168975         1.677157
