19
Iteration:  2546charge 0 multiplicity 1
 C        -0.121375         0.061471         0.258731
 C         1.405297        -0.092631        -0.118691
 C         1.948856        -1.570465         0.051850
 C         3.255045        -1.045093         0.615958
 O         4.156826        -1.907449         1.365184
 C         3.799692         0.165281        -0.148280
 C         3.306407         0.120424        -1.574103
 O         1.807809         0.557732        -1.388022
 C         2.607881         0.361370         0.877297
 H        -0.207688        -0.417311         1.287321
 H        -0.368306         1.156863         0.349139
 H        -0.745937        -0.527845        -0.347170
 H         1.444638        -2.165912         0.714616
 H         2.113301        -2.152237        -0.881312
 H         3.856602        -2.076612         2.287114
 H         4.729938         0.436189         0.247703
 H         3.682654         0.916703        -2.204367
 H         3.199874        -0.884642        -1.893822
 H         2.586564         1.066040         1.609983
