19
Iteration:  3842
 C         0.007529         0.088942         0.297187
 C         1.452050        -0.066978        -0.039467
 C         2.001101        -1.560595        -0.098417
 C         3.278440        -1.156548         0.626140
 O         3.967023        -1.925783         1.495096
 C         3.725402         0.058514        -0.135226
 C         3.217909         0.359015        -1.555608
 O         1.752412         0.490053        -1.415315
 C         2.702427         0.314323         0.877261
 H        -0.045531        -0.255549         1.410201
 H        -0.437250         1.155231         0.185182
 H        -0.654204        -0.530522        -0.418773
 H         1.473432        -2.177572         0.525453
 H         2.161211        -1.942083        -1.081354
 H         4.826353        -2.205627         1.128269
 H         4.702362         0.383530         0.131641
 H         3.616727         1.339416        -1.920092
 H         3.431833        -0.517145        -2.233936
 H         2.927560         1.034130         1.705183
