19
Iteration:  4382charge 0 multiplicity 1
 C         0.085010         0.273267         0.407457
 C         1.462991        -0.144159        -0.150280
 C         2.025296        -1.700057        -0.026500
 C         3.265823        -1.086730         0.641073
 O         3.872102        -1.958238         1.582586
 C         3.808349         0.066915        -0.231908
 C         3.176996         0.511747        -1.554608
 O         1.761621         0.277793        -1.515702
 C         2.641181         0.259063         0.792848
 H        -0.105281        -0.311651         1.402624
 H         0.125038         1.390675         0.571899
 H        -0.732029         0.000012        -0.249911
 H         1.525677        -2.190579         0.856716
 H         2.132884        -2.092262        -1.079679
 H         4.776528        -1.669570         1.736264
 H         4.787068         0.475149        -0.017893
 H         3.421535         1.700564        -1.645444
 H         3.717881         0.078546        -2.418035
 H         2.751068         1.078941         1.597527
