19
Iteration:  4036charge 0 multiplicity 1
 C        -0.014263         0.179435         0.070057
 C         1.463656        -0.113878        -0.067945
 C         1.914175        -1.622226         0.162285
 C         3.287061        -1.135448         0.604710
 O         4.101862        -1.868757         1.381392
 C         3.744301         0.095192        -0.132636
 C         3.218638         0.358049        -1.503267
 O         1.736470         0.460109        -1.323569
 C         2.695014         0.296163         0.883230
 H        -0.428936        -0.320327         0.876527
 H        -0.283246         1.163657         0.442814
 H        -0.390056        -0.175300        -0.892915
 H         1.407899        -2.097299         1.080935
 H         1.844695        -2.450927        -0.673845
 H         4.195622        -2.727796         0.935845
 H         4.882074         0.314102         0.016240
 H         3.527824         1.390413        -2.023766
 H         3.484468        -0.455795        -2.240183
 H         2.783786         0.967558         1.727654
