19
Iteration:  2107charge 0 multiplicity 1
 C        -0.076826         0.113079         0.180983
 C         1.438132        -0.088566        -0.091920
 C         1.943506        -1.586572         0.117865
 C         3.240010        -1.027941         0.692552
 O         4.123913        -1.948319         1.384478
 C         3.740575         0.067627        -0.140594
 C         3.279381         0.279748        -1.587619
 O         1.804880         0.497554        -1.362188
 C         2.639964         0.389831         0.891200
 H        -0.364321        -0.310826         1.134337
 H        -0.303340         1.143684        -0.038890
 H        -0.618221        -0.527459        -0.628237
 H         1.512157        -2.023677         1.026475
 H         2.025689        -2.407689        -0.713563
 H         4.361213        -2.656251         0.755968
 H         4.758187         0.465284         0.181127
 H         3.555680         1.133256        -2.132499
 H         3.317186        -0.704905        -2.148846
 H         2.581328         1.093935         1.828890
