19
Iteration:   841
 C         0.011649         0.108241         0.155419
 C         1.466986        -0.126570        -0.138367
 C         1.945445        -1.599286         0.104175
 C         3.268346        -1.088378         0.636456
 O         4.174366        -1.876097         1.464418
 C         3.760626         0.127377        -0.179715
 C         3.178536         0.363926        -1.536779
 O         1.732025         0.405385        -1.386095
 C         2.656103         0.304384         0.879856
 H        -0.394274        -0.438415         1.078075
 H        -0.214220         1.229956         0.101814
 H        -0.700689        -0.143020        -0.690435
 H         1.335899        -2.189957         0.807156
 H         1.947094        -2.196331        -0.800986
 H         3.579345        -2.430142         2.019167
 H         4.751342         0.492758         0.081753
 H         3.555804         1.329727        -2.005785
 H         3.535626        -0.406479        -2.256982
 H         2.796803         0.959184         1.726744
