19
Iteration:   357charge 0 multiplicity 1
 C         0.158968         0.151326         0.370241
 C         1.500707        -0.231999        -0.177860
 C         1.960055        -1.677184        -0.059586
 C         3.177970        -1.125869         0.680793
 O         3.928127        -1.703706         1.558996
 C         3.791313         0.146895        -0.174929
 C         3.238152         0.473929        -1.485402
 O         1.782828         0.245438        -1.519058
 C         2.616899         0.279180         0.824494
 H        -0.113476        -0.541771         1.167218
 H         0.100936         1.121318         0.824941
 H        -0.636357         0.142162        -0.457178
 H         1.174574        -2.306649         0.525592
 H         2.150924        -2.137194        -1.053452
 H         4.407781        -2.392776         1.029934
 H         4.731776         0.508343         0.231226
 H         3.375192         1.590754        -1.683854
 H         3.748291        -0.123932        -2.207263
 H         2.491986         1.024337         1.616967
