19
Iteration:  1653charge 0 multiplicity 1
 C        -0.053503         0.062822         0.207815
 C         1.442714        -0.030672        -0.069119
 C         1.961715        -1.565844         0.084785
 C         3.255003        -1.029075         0.662712
 O         4.136564        -1.890041         1.428019
 C         3.769053         0.030492        -0.176459
 C         3.241707         0.187783        -1.530920
 O         1.775217         0.468270        -1.374126
 C         2.621580         0.425882         0.775173
 H        -0.317709        -0.311280         1.180231
 H        -0.349590         1.103617         0.338797
 H        -0.471143        -0.622994        -0.579875
 H         1.432478        -2.040267         0.862505
 H         2.097277        -2.126021        -0.830318
 H         3.703739        -2.693850         1.775728
 H         4.727489         0.596605         0.016501
 H         3.566661         1.098052        -2.016121
 H         3.419127        -0.680052        -2.195162
 H         2.887745         1.205583         1.503499
