19
Iteration:   415
 C         0.034173         0.061315        -0.007604
 C         1.468442        -0.094717        -0.030770
 C         2.038205        -1.638084         0.035678
 C         3.230942        -1.052715         0.658016
 O         4.136858        -1.771242         1.456668
 C         3.705295         0.019024        -0.107685
 C         3.128468         0.243595        -1.544155
 O         1.759644         0.562683        -1.309817
 C         2.641956         0.328251         0.961214
 H        -0.339702        -0.222092         1.021287
 H        -0.297519         1.101895        -0.353829
 H        -0.414351        -0.757569        -0.672713
 H         1.295414        -2.057862         0.628221
 H         2.102485        -2.162747        -0.901868
 H         4.275663        -2.659790         1.108872
 H         4.766006         0.282708        -0.007712
 H         3.621028         0.989674        -2.221050
 H         3.237892        -0.724575        -2.040039
 H         2.581927         0.913985         1.891474
