19
Iteration:  2834charge 0 multiplicity 1
 C        -0.075335         0.165092         0.126400
 C         1.458435        -0.094985         0.002143
 C         1.956527        -1.663324         0.124577
 C         3.277680        -1.045305         0.605584
 O         4.147770        -1.852061         1.292391
 C         3.768136         0.102693        -0.159023
 C         3.208310         0.270868        -1.575197
 O         1.820532         0.459088        -1.355071
 C         2.585869         0.280599         0.977593
 H        -0.288624        -0.243778         1.117442
 H        -0.365121         1.210242         0.152444
 H        -0.745704        -0.417268        -0.646235
 H         1.393024        -2.111753         0.965028
 H         2.155373        -2.332946        -0.798720
 H         3.681270        -2.312977         2.003046
 H         4.825334         0.434085         0.105429
 H         3.722421         1.135360        -2.136552
 H         3.514303        -0.502604        -2.325533
 H         2.605470         0.997404         1.705200
