19
Iteration:  2031
 C         0.002830         0.289952         0.473035
 C         1.462115        -0.193649        -0.130407
 C         1.962216        -1.651841        -0.039129
 C         3.283574        -1.149084         0.580638
 O         4.023155        -1.821855         1.627877
 C         3.773432         0.060758        -0.177710
 C         3.256855         0.424511        -1.546125
 O         1.759247         0.307192        -1.534666
 C         2.554560         0.253261         0.733451
 H        -0.001994        -0.224919         1.416922
 H         0.062461         1.356744         0.487998
 H        -0.950251         0.031615        -0.148645
 H         1.453508        -2.138160         0.754777
 H         1.890005        -2.318429        -0.887698
 H         4.897835        -2.018092         1.253412
 H         4.878715         0.365233        -0.018846
 H         3.463174         1.507081        -1.778950
 H         3.591717        -0.031062        -2.494691
 H         2.781648         1.039685         1.565171
