19
Iteration:  4567
 C         0.074366         0.287512         0.356409
 C         1.460876        -0.180398        -0.074451
 C         1.861866        -1.696194        -0.125279
 C         3.254299        -1.188082         0.526087
 O         3.948622        -1.745763         1.627888
 C         3.805777         0.177571        -0.161863
 C         3.194174         0.475545        -1.567043
 O         1.825721         0.319444        -1.416775
 C         2.690981         0.120562         0.792424
 H         0.140090         0.044189         1.513804
 H         0.128583         1.373873         0.002816
 H        -0.858964        -0.256435        -0.038970
 H         1.385401        -2.325462         0.526215
 H         1.945010        -2.081288        -1.136977
 H         4.350275        -2.615569         1.500775
 H         4.767807         0.541291         0.094843
 H         3.508776         1.575730        -1.744940
 H         3.569495        -0.150995        -2.465299
 H         2.701094         0.507612         1.782917
