19
Iteration:  1400charge 0 multiplicity 1
 C         0.145612         0.311926         0.293257
 C         1.424643        -0.216770        -0.073642
 C         1.905495        -1.693111         0.004669
 C         3.287884        -1.162427         0.631010
 O         4.101086        -1.811196         1.566641
 C         3.730851         0.061565        -0.197317
 C         3.152581         0.512142        -1.539159
 O         1.794078         0.233641        -1.498800
 C         2.644123         0.303396         0.732629
 H        -0.373484        -0.067009         1.084752
 H         0.155110         1.362399         0.468635
 H        -0.543757         0.011132        -0.447087
 H         1.409170        -2.308862         0.735070
 H         1.912243        -2.232918        -0.948605
 H         3.506265        -2.099941         2.295012
 H         4.694280         0.472074         0.170159
 H         3.261736         1.641878        -1.653959
 H         3.646109         0.044503        -2.366082
 H         2.661571         0.757916         1.718353
