19
Iteration:  3413
 C        -0.005885         0.099475         0.301841
 C         1.462828        -0.140313        -0.116586
 C         1.988537        -1.619074        -0.080285
 C         3.280249        -1.117491         0.583782
 O         3.998085        -1.831485         1.558980
 C         3.790207         0.143294        -0.141645
 C         3.207841         0.337332        -1.598929
 O         1.788321         0.518462        -1.394431
 C         2.639312         0.254928         0.900956
 H        -0.311098        -0.631444         1.028918
 H        -0.066154         1.090422         0.646683
 H        -0.791076        -0.208542        -0.378853
 H         1.466680        -2.259990         0.637392
 H         1.941853        -2.298025        -1.056764
 H         4.388727        -2.602424         1.105825
 H         4.784994         0.520867         0.146510
 H         3.502403         1.234480        -2.238933
 H         3.571349        -0.524649        -2.106632
 H         2.711143         0.951014         1.764613
