19
Iteration:  1183charge 0 multiplicity 1
 C        -0.020080         0.083520         0.028018
 C         1.465897         0.001092        -0.060850
 C         1.911951        -1.620834         0.136464
 C         3.213295        -1.139014         0.699086
 O         4.266575        -1.824968         1.268418
 C         3.650988         0.127680        -0.084696
 C         3.186412         0.185117        -1.506255
 O         1.789185         0.538776        -1.341286
 C         2.687242         0.316041         0.951829
 H        -0.416107        -0.275856         0.917363
 H        -0.577599         0.961847        -0.238439
 H        -0.434299        -0.476835        -0.810470
 H         1.201798        -2.050121         0.827527
 H         1.881051        -2.279953        -0.699923
 H         3.881744        -2.516680         1.819865
 H         4.729895         0.320494         0.044774
 H         3.660148         0.956777        -2.053738
 H         3.389558        -0.766005        -2.025477
 H         2.793281         1.026346         1.788706
