19
Iteration:   862charge 0 multiplicity 1
 C        -0.105586         0.134905         0.037816
 C         1.445349        -0.115301         0.047237
 C         2.053107        -1.634404         0.094200
 C         3.298584        -1.100445         0.712141
 O         4.227586        -1.864476         1.352547
 C         3.755823         0.008567        -0.145665
 C         3.166188         0.240369        -1.568486
 O         1.766332         0.567788        -1.285336
 C         2.624754         0.319847         0.846412
 H        -0.852508        -0.561575         0.614961
 H        -0.558656         1.204215         0.026188
 H        -0.449801        -0.051675        -1.070598
 H         1.409902        -2.081091         0.842352
 H         2.041500        -2.272233        -0.740483
 H         3.768444        -2.024436         2.208184
 H         4.728392         0.454941         0.062469
 H         3.610533         1.095364        -2.228502
 H         3.092192        -0.658378        -2.232684
 H         2.602885         1.153836         1.532330
