19
Iteration:  1718
 C         0.021799         0.426832         0.232044
 C         1.378214        -0.213722        -0.127691
 C         1.860663        -1.757189         0.004043
 C         3.146858        -1.186123         0.583093
 O         4.289765        -1.707874         1.465868
 C         3.737467         0.028382        -0.172230
 C         3.198903         0.570790        -1.456816
 O         1.802112         0.130444        -1.501925
 C         2.657781         0.180781         0.874261
 H        -0.249108         0.449453         1.286185
 H         0.224675         1.579127         0.119828
 H        -0.907439         0.130065        -0.397796
 H         1.345074        -2.147956         0.930669
 H         1.971814        -2.533930        -0.801041
 H         3.871125        -1.651952         2.353348
 H         4.801379         0.144367         0.166077
 H         3.274568         1.620988        -1.402516
 H         3.615238         0.187540        -2.452250
 H         2.709183         0.599518         1.887041
