19
Iteration:  3676
 C         0.133210         0.215224         0.347888
 C         1.488342        -0.181775        -0.101117
 C         1.918974        -1.718767        -0.053612
 C         3.190522        -1.188461         0.587864
 O         3.991164        -1.823150         1.454556
 C         3.765365         0.127396        -0.112215
 C         3.176220         0.504787        -1.440505
 O         1.776606         0.399524        -1.468164
 C         2.628574         0.210539         0.858367
 H         0.059068         0.062566         1.434322
 H        -0.148704         1.219233        -0.179610
 H        -0.643760        -0.416044        -0.256294
 H         1.470573        -2.296485         0.659067
 H         2.032192        -2.143346        -1.022448
 H         4.787304        -2.208429         1.043653
 H         4.834710         0.383250         0.276637
 H         3.577626         1.515906        -1.757008
 H         3.575019        -0.171751        -2.293312
 H         2.688031         0.953845         1.641204
