19
Iteration:  2280charge 0 multiplicity 1
 C        -0.080739         0.305097         0.191868
 C         1.392807        -0.121762        -0.103398
 C         1.917796        -1.670654         0.000964
 C         3.235775        -1.177159         0.646598
 O         4.212700        -1.845560         1.464928
 C         3.788906         0.059890        -0.122446
 C         3.224333         0.319336        -1.509109
 O         1.750818         0.410122        -1.368344
 C         2.629372         0.254390         0.858664
 H        -0.234047         0.155464         1.255765
 H        -0.276105         1.357209        -0.009497
 H        -0.901374        -0.311131        -0.454986
 H         1.487136        -2.220774         0.854634
 H         1.899513        -2.463669        -0.746885
 H         5.004466        -2.002973         0.911003
 H         4.659994         0.463388         0.239056
 H         3.503446         1.310659        -1.956192
 H         3.517187        -0.297502        -2.333652
 H         2.763946         1.093249         1.509816
