19
Iteration:   662charge 0 multiplicity 1
 C         0.126131         0.275678         0.269893
 C         1.488336        -0.160492        -0.155341
 C         1.996569        -1.717079        -0.040739
 C         3.253143        -1.156950         0.575584
 O         4.102790        -1.786963         1.513150
 C         3.707454         0.129025        -0.061786
 C         3.183269         0.506925        -1.483582
 O         1.730515         0.237475        -1.504580
 C         2.601402         0.236731         0.816736
 H        -0.177514         0.024381         1.287821
 H        -0.041555         1.364443         0.377495
 H        -0.721202        -0.072528        -0.480582
 H         1.624603        -2.393323         0.690170
 H         1.990655        -2.207436        -0.958758
 H         3.583855        -2.116707         2.252328
 H         4.791830         0.221162         0.108571
 H         3.452262         1.541189        -1.576608
 H         3.657188         0.043101        -2.283493
 H         2.375152         0.765748         1.754159
