19
Iteration:  3099charge 0 multiplicity 1
 C         0.050780         0.142021         0.352200
 C         1.477808        -0.146301        -0.086475
 C         2.032228        -1.537830        -0.134444
 C         3.272822        -1.091109         0.596601
 O         4.016423        -1.967125         1.456007
 C         3.732424         0.160348        -0.062730
 C         3.209263         0.272372        -1.521471
 O         1.752079         0.397713        -1.452484
 C         2.579712         0.325470         0.826629
 H        -0.061511        -0.478878         1.263447
 H        -0.061580         1.156194         0.687502
 H        -0.710701        -0.005149        -0.464883
 H         1.276637        -2.154913         0.534181
 H         2.129820        -2.036323        -1.163813
 H         4.719514        -1.518545         1.956456
 H         4.707532         0.608593         0.246596
 H         3.499878         1.342978        -1.838574
 H         3.565805        -0.597488        -2.159296
 H         2.513603         1.037140         1.599217
