19
Iteration:  4093
 C         0.166327         0.398020         0.357198
 C         1.471710        -0.277735        -0.082852
 C         1.897695        -1.717216        -0.030460
 C         3.322649        -1.148289         0.503528
 O         3.965000        -1.824639         1.482643
 C         3.756852         0.161915        -0.107048
 C         3.209220         0.501646        -1.468145
 O         1.787939         0.207139        -1.460493
 C         2.561663         0.238016         0.816774
 H        -0.050800         0.158717         1.315110
 H         0.269351         1.401632         0.027324
 H        -0.713559         0.091772        -0.169834
 H         1.439540        -2.202715         0.853076
 H         1.747094        -2.502711        -0.937899
 H         4.870225        -2.008821         1.166745
 H         4.713640         0.578371         0.113744
 H         3.218454         1.697188        -1.647046
 H         3.627133         0.012117        -2.410650
 H         2.334592         0.517381         1.831916
