19
Iteration:  4103charge 0 multiplicity 1
 C         0.175951         0.375828         0.315783
 C         1.423398        -0.249421        -0.092797
 C         1.973281        -1.762601        -0.013845
 C         3.239645        -1.123575         0.486153
 O         3.940494        -1.805018         1.491008
 C         3.768127         0.142861        -0.159193
 C         3.209891         0.489050        -1.489659
 O         1.760034         0.263300        -1.354019
 C         2.561468         0.147253         0.770332
 H         0.142980         0.413767         1.347416
 H         0.338178         1.444089         0.049026
 H        -0.686312        -0.062482        -0.194385
 H         1.664014        -2.332947         0.880030
 H         1.973674        -2.252356        -1.068214
 H         4.885874        -1.990049         1.336051
 H         4.648533         0.633190         0.268392
 H         3.431976         1.670407        -1.570831
 H         3.688759        -0.113377        -2.307975
 H         2.609329         0.761826         1.632293
