19
Iteration:  3049
 C         0.188109         0.014714         0.325872
 C         1.570456        -0.120988        -0.118172
 C         1.938223        -1.698199        -0.098154
 C         3.235130        -1.163913         0.535083
 O         3.888329        -1.858839         1.626132
 C         3.794788         0.082584        -0.214297
 C         3.168538         0.504754        -1.543152
 O         1.698496         0.514795        -1.378396
 C         2.699354         0.214665         0.803483
 H         0.115660        -0.341389         1.354724
 H        -0.129897         1.109835         0.165420
 H        -0.478064        -0.352182        -0.424043
 H         1.412999        -2.189914         0.661820
 H         1.986517        -2.172138        -1.033401
 H         4.387368        -1.224010         2.182405
 H         4.896052         0.464944         0.006570
 H         3.593028         1.357293        -2.060637
 H         3.276569        -0.310604        -2.348451
 H         2.547965         0.906232         1.612241
