19
Iteration:  3617charge 0 multiplicity 1
 C         0.141982         0.001898         0.345913
 C         1.519618        -0.115425        -0.145564
 C         2.041841        -1.590492        -0.173019
 C         3.135831        -1.053990         0.631924
 O         3.916139        -1.816449         1.618882
 C         3.800370         0.028631        -0.202658
 C         3.157603         0.352513        -1.603745
 O         1.739000         0.527211        -1.321952
 C         2.702729         0.319636         0.822190
 H        -0.164838        -0.764284         1.170351
 H         0.002358         0.930962         0.850955
 H        -0.525382        -0.192022        -0.516872
 H         1.378081        -2.332134         0.385818
 H         2.264180        -2.004069        -1.147336
 H         4.251745        -2.636282         1.223060
 H         4.795755         0.210295        -0.101319
 H         3.547095         1.305022        -1.779635
 H         3.309487        -0.372703        -2.296927
 H         2.792870         0.932627         1.733830
