19
Iteration:  1580
 C         0.072266         0.305940         0.314436
 C         1.450556        -0.221173        -0.117753
 C         1.949950        -1.693465         0.017242
 C         3.207559        -1.076033         0.653079
 O         4.105652        -1.827770         1.495333
 C         3.753010         0.116754        -0.187090
 C         3.238156         0.458421        -1.581375
 O         1.749557         0.206093        -1.465587
 C         2.639114         0.256940         0.824068
 H        -0.035735         0.024688         1.376346
 H         0.052892         1.471243         0.308898
 H        -0.737921        -0.090525        -0.426091
 H         1.192863        -2.245599         0.684030
 H         2.060822        -2.156985        -1.018480
 H         3.920055        -1.824856         2.440067
 H         4.658130         0.683876         0.071602
 H         3.590903         1.521143        -1.971069
 H         3.475274        -0.238433        -2.386748
 H         2.554757         0.771593         1.734441
