19
Iteration:  3115
 C         0.055498         0.176614         0.226676
 C         1.459007        -0.148626        -0.109876
 C         1.963544        -1.665972        -0.002512
 C         3.217122        -1.050464         0.674303
 O         4.039386        -1.929288         1.362095
 C         3.733098         0.169544        -0.152634
 C         3.211011         0.345578        -1.571616
 O         1.822277         0.421039        -1.330257
 C         2.578190         0.244556         0.959934
 H        -0.294373        -0.400770         1.074745
 H        -0.192841         1.304897         0.300792
 H        -0.592571        -0.057807        -0.611592
 H         1.489174        -2.313935         0.681878
 H         2.094241        -2.092413        -0.967511
 H         4.818491        -1.393036         1.571168
 H         4.739026         0.582301         0.091757
 H         3.613553         1.024128        -2.276671
 H         3.510765        -0.506783        -2.209063
 H         2.553995         0.876543         1.912827
