19
Iteration:   831
 C         0.066233         0.152342         0.252688
 C         1.489499        -0.118407        -0.099846
 C         1.939540        -1.656911         0.031013
 C         3.220516        -1.102768         0.653258
 O         4.100721        -1.807715         1.441724
 C         3.695406         0.155213        -0.152527
 C         3.277297         0.434056        -1.536311
 O         1.767947         0.304411        -1.441656
 C         2.659722         0.250312         0.837257
 H        -0.175527        -0.237509         1.296743
 H        -0.212874         1.227399         0.354974
 H        -0.472745        -0.468600        -0.458732
 H         1.208007        -2.000307         0.806095
 H         2.024365        -2.239269        -0.903846
 H         3.496218        -2.433005         1.878108
 H         4.659908         0.587541         0.063988
 H         3.419913         1.449251        -1.945611
 H         3.457782        -0.407109        -2.189696
 H         2.665296         0.958555         1.632280
