19
Iteration:  3714
 C        -0.137495         0.231221         0.033192
 C         1.388769        -0.124115         0.015169
 C         1.913724        -1.600523         0.153931
 C         3.301920        -1.082964         0.618911
 O         4.184227        -1.976097         1.255297
 C         3.765378         0.097230        -0.038975
 C         3.222804         0.344621        -1.445490
 O         1.816401         0.467805        -1.353020
 C         2.635353         0.265092         0.919648
 H        -0.694194        -0.240120         0.865524
 H        -0.340178         1.243898        -0.101450
 H        -0.545174        -0.370103        -0.734072
 H         1.431468        -2.177780         1.070830
 H         1.709801        -2.339528        -0.697058
 H         4.926334        -1.994949         0.632839
 H         4.704594         0.481773         0.245069
 H         3.651727         1.282378        -1.942633
 H         3.479462        -0.607480        -2.184104
 H         2.723343         1.038731         1.704086
