19
Iteration:  1298charge 0 multiplicity 1
 C         0.055212         0.093598         0.200649
 C         1.488425        -0.096915        -0.132861
 C         1.940965        -1.604395        -0.002593
 C         3.272601        -1.124257         0.624253
 O         4.091038        -1.846291         1.509409
 C         3.765867         0.070824        -0.167200
 C         3.139133         0.379179        -1.534261
 O         1.800242         0.429474        -1.345908
 C         2.653179         0.292395         0.791787
 H         0.152273         0.088759         1.348951
 H        -0.491897         0.986452        -0.206420
 H        -0.633750        -0.639552        -0.279962
 H         1.353740        -2.114013         0.739842
 H         1.833056        -2.162968        -0.904699
 H         3.535647        -2.148230         2.241530
 H         4.680516         0.477341         0.156005
 H         3.620625         1.265977        -2.026049
 H         3.216040        -0.457298        -2.268858
 H         2.836372         0.999848         1.591527
