19
Iteration:   107
 C        -0.154702         0.109660         0.066027
 C         1.443939        -0.149758        -0.073391
 C         2.044199        -1.562594         0.055891
 C         3.252658        -1.009921         0.679601
 O         4.108423        -1.803204         1.386442
 C         3.760525         0.045033        -0.112960
 C         3.230854         0.199594        -1.553473
 O         1.832783         0.532965        -1.270463
 C         2.596862         0.270130         0.917143
 H        -0.392526        -0.132461         1.105511
 H        -0.185402         1.125952        -0.197887
 H        -0.743568        -0.445721        -0.769821
 H         1.353044        -2.090047         0.739045
 H         2.164916        -2.337006        -0.747658
 H         4.534233        -2.509216         0.911090
 H         4.721147         0.442357         0.201219
 H         3.653266         1.039103        -2.110169
 H         3.285057        -0.806988        -2.033894
 H         2.600707         0.973982         1.676711
