19
Iteration:   871charge 0 multiplicity 1
 C        -0.110875         0.121202         0.007211
 C         1.452648        -0.076562        -0.063082
 C         1.973569        -1.647652         0.132680
 C         3.259223        -1.069352         0.671176
 O         4.249752        -1.851550         1.352359
 C         3.712240         0.057968        -0.220197
 C         3.140774         0.185184        -1.523406
 O         1.781973         0.586429        -1.227758
 C         2.626655         0.291457         0.898703
 H        -0.684004        -0.638822         0.664155
 H        -0.329236         1.230277         0.261038
 H        -0.219468        -0.150094        -1.135552
 H         1.385298        -2.304438         0.742521
 H         2.170524        -2.169320        -0.801984
 H         4.059837        -2.080494         2.284102
 H         4.668153         0.490556         0.142183
 H         3.752344         0.918331        -2.158207
 H         3.296054        -0.798441        -2.018293
 H         2.885644         1.156607         1.560029
