19
Iteration:  3451charge 0 multiplicity 1
 C         0.014592         0.120700         0.236182
 C         1.460894        -0.156409        -0.122688
 C         1.987371        -1.653043        -0.150427
 C         3.244720        -1.143213         0.666235
 O         4.111310        -1.803358         1.561657
 C         3.691160         0.100310        -0.152741
 C         3.217483         0.296110        -1.609840
 O         1.772832         0.570834        -1.336084
 C         2.624531         0.267143         0.910588
 H        -0.214369        -0.458492         1.209291
 H        -0.145240         1.174853         0.702482
 H        -0.655371        -0.139846        -0.639780
 H         1.235210        -2.260801         0.442210
 H         2.113094        -2.072640        -1.101233
 H         4.639093        -2.479103         1.111451
 H         4.774610         0.360593         0.194644
 H         3.652082         1.105833        -2.183990
 H         3.073785        -0.724900        -2.016854
 H         2.632331         0.996428         1.717741
