19
Iteration:   433
 C        -0.045680         0.070539         0.126909
 C         1.438384        -0.088263        -0.122447
 C         1.900113        -1.542362        -0.044763
 C         3.216421        -1.117694         0.732666
 O         4.200827        -1.842054         1.501452
 C         3.747463         0.227313        -0.114707
 C         3.199140         0.206722        -1.511900
 O         1.812307         0.490691        -1.376603
 C         2.640024         0.252636         0.914680
 H        -0.392259         0.032805         1.123445
 H        -0.422522         0.947074        -0.280125
 H        -0.577365        -0.780258        -0.353911
 H         1.248225        -2.232169         0.748997
 H         1.981552        -2.038225        -1.080466
 H         4.567108        -2.455597         0.840189
 H         4.651402         0.593415         0.290449
 H         3.707064         0.925428        -2.199892
 H         3.406981        -0.697408        -2.153299
 H         2.613974         0.980598         1.678888
