19
Iteration:  2506
 C         0.069518         0.208671         0.246426
 C         1.455138        -0.200707        -0.083387
 C         1.979484        -1.710156        -0.011169
 C         3.232834        -1.134938         0.676754
 O         4.113980        -1.764787         1.475431
 C         3.737738         0.070028        -0.168601
 C         3.201841         0.365184        -1.620872
 O         1.741209         0.415857        -1.332302
 C         2.644477         0.328944         0.813970
 H        -0.299427        -0.331475         1.144869
 H         0.012316         1.299556         0.525700
 H        -0.654959        -0.075100        -0.526038
 H         1.362757        -2.440083         0.592844
 H         2.152294        -2.059591        -1.048803
 H         3.523576        -2.378149         1.942137
 H         4.758016         0.224545        -0.030575
 H         3.540678         1.312288        -2.084201
 H         3.571570        -0.421339        -2.338673
 H         2.641403         1.081909         1.663995
