19
Iteration:  2832charge 0 multiplicity 1
 C        -0.067644         0.166933         0.104642
 C         1.453951        -0.090623        -0.002702
 C         1.937626        -1.673733         0.130608
 C         3.275930        -1.054124         0.604775
 O         4.159105        -1.849111         1.296791
 C         3.773194         0.101113        -0.155280
 C         3.215045         0.292992        -1.587578
 O         1.811601         0.447664        -1.353053
 C         2.591456         0.281368         0.991654
 H        -0.349033        -0.247958         1.072698
 H        -0.299617         1.237647         0.189230
 H        -0.669915        -0.417896        -0.566170
 H         1.378922        -2.106301         0.981680
 H         2.125231        -2.321782        -0.824846
 H         3.693208        -2.308303         2.012213
 H         4.764966         0.420644         0.039871
 H         3.689945         1.167450        -2.147141
 H         3.503446        -0.519734        -2.297374
 H         2.623204         0.987741         1.769643
