19
Iteration:  3430
 C         0.094827         0.073642         0.289250
 C         1.469077        -0.116909        -0.128239
 C         2.041492        -1.645577        -0.088598
 C         3.249896        -1.093496         0.579729
 O         3.981524        -1.728163         1.461990
 C         3.754499         0.139400        -0.117355
 C         3.205457         0.196591        -1.502963
 O         1.804902         0.593000        -1.292697
 C         2.567202         0.221565         0.776415
 H        -0.358438        -0.609911         1.132666
 H         0.036449         1.129191         0.779583
 H        -0.519752        -0.149985        -0.637846
 H         1.448681        -2.306699         0.634482
 H         2.163216        -2.290287        -0.882361
 H         4.244415        -2.564011         1.024583
 H         4.836578         0.550978         0.109523
 H         3.744863         1.000252        -1.938786
 H         2.929563        -0.818336        -1.997674
 H         2.442254         0.687135         1.736603
