19
Iteration:   156charge 0 multiplicity 1
 C        -0.018541         0.139032         0.270536
 C         1.428679        -0.182984        -0.097773
 C         1.995390        -1.660615         0.048006
 C         3.244973        -1.047426         0.583302
 O         3.957761        -1.843964         1.491271
 C         3.787645         0.091170        -0.128789
 C         3.261824         0.398618        -1.537273
 O         1.825006         0.393834        -1.447008
 C         2.595046         0.281999         0.836784
 H        -0.228046        -0.254381         1.270532
 H        -0.163090         1.260709         0.178580
 H        -0.659631        -0.382811        -0.386034
 H         1.551953        -2.353902         0.817981
 H         1.936697        -2.345100        -0.851999
 H         4.919499        -1.881311         1.260482
 H         4.782949         0.475743         0.105802
 H         3.596372         1.432984        -1.806760
 H         3.682906        -0.258202        -2.302255
 H         2.648168         1.019792         1.674377
