19
Iteration:  3308
 C        -0.001378         0.207994         0.159364
 C         1.456652        -0.191937        -0.037861
 C         2.030889        -1.697194         0.001738
 C         3.158963        -1.056678         0.665261
 O         4.124076        -1.891347         1.344153
 C         3.725365         0.133741        -0.059190
 C         3.209740         0.367694        -1.520892
 O         1.826557         0.371379        -1.334661
 C         2.573623         0.363624         0.919578
 H        -0.258622         0.083401         1.187477
 H        -0.272840         1.297628        -0.019447
 H        -0.586970        -0.277460        -0.603378
 H         1.373022        -2.306259         0.646598
 H         2.291545        -2.070362        -0.918281
 H         4.562931        -2.362944         0.618615
 H         4.707214         0.256731         0.289538
 H         3.506184         1.280057        -1.960975
 H         3.397613        -0.508864        -2.259467
 H         2.365193         1.149764         1.706378
