19
Iteration:  4381charge 0 multiplicity 1
 C         0.082701         0.272039         0.406717
 C         1.467757        -0.141060        -0.143732
 C         2.030631        -1.703558        -0.033723
 C         3.259460        -1.091137         0.659895
 O         3.879087        -1.953806         1.578511
 C         3.799748         0.057745        -0.229136
 C         3.181964         0.510540        -1.559536
 O         1.752722         0.285445        -1.520038
 C         2.642699         0.264646         0.797786
 H        -0.119177        -0.362143         1.412986
 H         0.155449         1.433188         0.530263
 H        -0.722425         0.015459        -0.282811
 H         1.541939        -2.183183         0.810699
 H         2.125338        -2.097222        -1.085896
 H         4.781806        -1.673537         1.744440
 H         4.837198         0.457707        -0.043613
 H         3.401656         1.681653        -1.657169
 H         3.701830         0.056953        -2.390094
 H         2.735309         1.068178         1.608204
