19
Iteration:  2937
 C         0.084040         0.181945         0.180189
 C         1.481781        -0.194781        -0.162458
 C         1.927188        -1.623915         0.047231
 C         3.226446        -1.116849         0.652385
 O         4.134840        -1.886376         1.402737
 C         3.764582         0.051479        -0.115177
 C         3.140592         0.499721        -1.557489
 O         1.716132         0.347672        -1.453392
 C         2.675578         0.260580         0.960641
 H        -0.211131        -0.247793         1.191987
 H         0.005140         1.305632         0.326094
 H        -0.616510         0.080704        -0.707186
 H         1.412930        -2.245588         0.800110
 H         1.942098        -2.186621        -0.820379
 H         4.105758        -1.588274         2.335778
 H         4.783590         0.153418         0.057858
 H         3.303518         1.553226        -1.543726
 H         3.516785        -0.050813        -2.439624
 H         2.681105         0.888147         1.902682
