19
Iteration:   944
 C         0.200717         0.236607         0.344100
 C         1.527325        -0.142422        -0.141605
 C         2.006028        -1.721247         0.041246
 C         3.229654        -1.128395         0.642646
 O         3.984679        -1.851875         1.536213
 C         3.777356         0.189506        -0.174084
 C         3.133161         0.565127        -1.542856
 O         1.702143         0.207451        -1.553681
 C         2.621242         0.261136         0.770534
 H         0.236179         0.198339         1.373183
 H         0.008084         1.239028         0.120503
 H        -0.362187        -0.574487        -0.011615
 H         1.489575        -2.477830         0.712214
 H         2.107415        -2.163763        -1.055488
 H         3.358462        -2.446018         1.955614
 H         4.791739         0.545790         0.244560
 H         3.289299         1.646312        -1.397502
 H         3.770624         0.097866        -2.326955
 H         2.512780         0.866334         1.740906
