19
Iteration:  4410
 C         0.165404         0.179073         0.363077
 C         1.514640        -0.168331        -0.101345
 C         1.848899        -1.681534         0.077975
 C         3.226317        -1.121544         0.470841
 O         3.862430        -1.908933         1.481319
 C         3.799594         0.155499        -0.165199
 C         3.241777         0.550000        -1.544185
 O         1.830083         0.218339        -1.445481
 C         2.634640         0.315375         0.794447
 H        -0.074196         0.145793         1.412956
 H        -0.073596         1.278391         0.288016
 H        -0.564880        -0.409686        -0.207474
 H         1.406758        -1.947311         1.012844
 H         1.629881        -2.222231        -0.807916
 H         4.788735        -1.600601         1.544215
 H         4.896227         0.406954         0.137277
 H         3.423643         1.576331        -1.769132
 H         3.824626         0.013872        -2.310653
 H         2.619567         0.801525         1.737895
