19
Iteration:  3541
 C        -0.001319         0.367752         0.178769
 C         1.435077        -0.190914        -0.015799
 C         1.935075        -1.700681         0.024125
 C         3.219034        -1.106667         0.654887
 O         4.170187        -1.904058         1.301160
 C         3.709567         0.081835        -0.059718
 C         3.187971         0.483156        -1.437580
 O         1.852699         0.191035        -1.415991
 C         2.529359         0.334288         0.865958
 H        -0.225501         0.381551         1.317143
 H        -0.146250         1.437977        -0.129004
 H        -0.712995        -0.241537        -0.432239
 H         1.371294        -2.315748         0.726846
 H         2.026407        -2.078543        -0.911355
 H         5.045810        -1.863551         0.867901
 H         4.672270         0.488283         0.140123
 H         3.547570         1.507031        -1.496681
 H         3.664188        -0.221932        -2.224498
 H         2.353000         0.826157         1.817444
