19
Iteration:  3596charge 0 multiplicity 1
 C        -0.054438         0.053931         0.270236
 C         1.484764        -0.103812        -0.064615
 C         1.984416        -1.605954        -0.033231
 C         3.263795        -1.109320         0.637965
 O         4.022430        -1.870368         1.533626
 C         3.788176         0.070409        -0.167859
 C         3.244030         0.296369        -1.620036
 O         1.764438         0.636091        -1.342392
 C         2.664660         0.272463         0.824997
 H        -0.396013        -0.845385         0.924240
 H        -0.435696         0.968421         0.732439
 H        -0.566105        -0.275779        -0.671638
 H         1.288135        -2.186645         0.580216
 H         2.033530        -2.111719        -0.930967
 H         4.687446        -2.438641         1.100295
 H         4.672394         0.481878         0.155069
 H         3.798508         1.040651        -2.159259
 H         3.234510        -0.685691        -2.156674
 H         2.728082         1.076360         1.571426
