19
Iteration:  3901charge 0 multiplicity 1
 C        -0.035521         0.340597         0.111138
 C         1.406118        -0.131879        -0.093091
 C         1.913562        -1.610367         0.054886
 C         3.268841        -1.157450         0.666502
 O         4.246492        -1.881319         1.371638
 C         3.793078         0.081425        -0.057454
 C         3.197620         0.401888        -1.494236
 O         1.706563         0.350370        -1.373608
 C         2.594454         0.215518         0.895241
 H        -0.572392        -0.149526         0.998414
 H         0.023387         1.411793         0.287696
 H        -0.568405         0.042390        -0.783187
 H         1.274254        -2.166540         0.838442
 H         1.898282        -2.346597        -0.750867
 H         4.573457        -2.610295         0.806660
 H         4.798462         0.502707         0.215177
 H         3.605013         1.445787        -1.796596
 H         3.634197        -0.200245        -2.282024
 H         2.567682         0.637697         1.871656
