19
Iteration:  2375charge 0 multiplicity 1
 C         0.024161         0.078881         0.260092
 C         1.498973        -0.097892        -0.056800
 C         1.951432        -1.633868        -0.063710
 C         3.200051        -1.099433         0.624288
 O         4.096009        -1.725481         1.509232
 C         3.778891         0.043692        -0.185523
 C         3.160563         0.241422        -1.541202
 O         1.762495         0.532446        -1.302170
 C         2.711908         0.294264         0.791783
 H        -0.341606        -0.376985         1.149078
 H        -0.234498         1.118465         0.174673
 H        -0.442410        -0.207260        -0.650054
 H         1.474336        -2.412597         0.632513
 H         1.863904        -2.105830        -1.013736
 H         3.798056        -2.638466         1.569901
 H         4.826999         0.233419        -0.117286
 H         3.688190         1.076515        -2.058470
 H         3.255940        -0.666577        -2.195908
 H         2.607701         0.908405         1.623988
