19
Iteration:  1842
 C         0.104729         0.277160         0.245241
 C         1.432195        -0.212809        -0.144251
 C         1.865841        -1.678713        -0.044039
 C         3.320435        -1.164287         0.532372
 O         4.138592        -1.778562         1.589685
 C         3.791221         0.032280        -0.175835
 C         3.094931         0.497224        -1.514890
 O         1.771594         0.330478        -1.383714
 C         2.683829         0.174176         0.775034
 H        -0.203115         0.071178         1.379308
 H        -0.156229         1.452337         0.230295
 H        -0.704159        -0.248222        -0.366388
 H         1.412346        -2.257693         0.795039
 H         1.800674        -2.242963        -1.029999
 H         3.596373        -1.541063         2.369692
 H         4.811795         0.377998         0.149090
 H         3.446652         1.512634        -1.833554
 H         3.468082        -0.141857        -2.407504
 H         2.594651         0.827882         1.696548
