19
Iteration:  1900
 C         0.011862         0.292409         0.234915
 C         1.431895        -0.151171        -0.130606
 C         1.843434        -1.567263         0.200243
 C         3.260586        -1.072021         0.634823
 O         4.239160        -2.011126         1.274940
 C         3.719807         0.161042        -0.050772
 C         3.275227         0.411481        -1.484134
 O         1.777421         0.178095        -1.517318
 C         2.589956         0.363650         0.819533
 H        -0.362096        -0.153281         1.178976
 H        -0.134700         1.360699         0.093566
 H        -0.606529        -0.178793        -0.576663
 H         1.384992        -1.973900         1.038941
 H         1.845346        -2.257927        -0.572357
 H         4.034693        -1.948744         2.233302
 H         4.571907         0.642656         0.363415
 H         3.389354         1.527532        -1.652128
 H         3.673803        -0.171487        -2.228306
 H         2.492960         0.959785         1.662351
