19
Iteration:  3595
 C        -0.059397         0.058717         0.265947
 C         1.479401        -0.101466        -0.065725
 C         1.986006        -1.605425        -0.029058
 C         3.259360        -1.105663         0.628529
 O         4.032538        -1.876308         1.534016
 C         3.790665         0.073940        -0.159944
 C         3.248805         0.287697        -1.627455
 O         1.761408         0.637581        -1.342616
 C         2.659532         0.268679         0.822994
 H        -0.407798        -0.815415         0.946885
 H        -0.454018         0.948177         0.726217
 H        -0.522353        -0.257276        -0.679496
 H         1.280149        -2.189767         0.635050
 H         2.019973        -2.133101        -0.954006
 H         4.712861        -2.434509         1.105433
 H         4.682308         0.501342         0.168304
 H         3.793193         1.053557        -2.131938
 H         3.228174        -0.662874        -2.106687
 H         2.731384         1.055447         1.577743
