19
Iteration:   812
 C         0.106289         0.156797         0.455499
 C         1.434134        -0.223053        -0.176188
 C         1.935348        -1.670412        -0.021889
 C         3.189881        -1.058165         0.543924
 O         4.053479        -1.749868         1.451016
 C         3.784782         0.091928        -0.091998
 C         3.278576         0.454880        -1.515643
 O         1.863118         0.228378        -1.514767
 C         2.533055         0.361293         0.816372
 H         0.071981         0.097345         1.486461
 H         0.006735         1.156543         0.188568
 H        -0.831041        -0.204412         0.192609
 H         1.475387        -2.379227         0.734325
 H         1.998201        -2.055284        -1.124992
 H         3.463482        -2.405744         1.840725
 H         4.778972         0.277745         0.227245
 H         3.317415         1.511474        -1.634632
 H         3.662428        -0.175680        -2.354200
 H         2.392520         0.909653         1.698685
