19
Iteration:  3873charge 0 multiplicity 1
 C        -0.010452         0.206313         0.126184
 C         1.440487        -0.142060        -0.025753
 C         1.885135        -1.661432         0.083195
 C         3.206767        -1.148149         0.665519
 O         4.164786        -1.844124         1.296399
 C         3.719305         0.159009        -0.076351
 C         3.265949         0.278191        -1.555998
 O         1.825733         0.533940        -1.292955
 C         2.584999         0.243369         0.869431
 H        -0.387701        -0.181640         1.048863
 H        -0.176403         1.302269         0.223892
 H        -0.472604        -0.307159        -0.747190
 H         1.357055        -2.180590         0.841978
 H         1.884001        -2.377850        -0.786852
 H         4.536938        -2.483989         0.660076
 H         4.556775         0.570404         0.351252
 H         3.815873         1.009660        -2.083566
 H         3.400810        -0.762203        -1.992658
 H         2.672214         0.910734         1.764997
