19
Iteration:  4752charge 0 multiplicity 1
 C         0.056416         0.178698         0.264761
 C         1.501714        -0.059144        -0.091515
 C         2.014275        -1.567221         0.050992
 C         3.223279        -1.127215         0.701573
 O         4.086110        -1.976099         1.462536
 C         3.768386         0.046294        -0.175397
 C         3.211939         0.243311        -1.571135
 O         1.727926         0.515249        -1.413656
 C         2.633111         0.381307         0.757679
 H        -0.232117        -0.121896         1.332074
 H        -0.261356         1.209799         0.050729
 H        -0.649957        -0.362431        -0.279186
 H         1.344015        -2.109216         0.815966
 H         2.068713        -2.365947        -0.875211
 H         3.420379        -2.470788         1.968868
 H         4.786834         0.459748         0.070177
 H         3.595102         1.158119        -2.055368
 H         3.379193        -0.571208        -2.223584
 H         2.760973         1.149058         1.533810
