19
Iteration:  2429charge 0 multiplicity 1
 C        -0.011402         0.225933         0.176884
 C         1.394141        -0.143728        -0.043450
 C         1.908008        -1.587097         0.090621
 C         3.229618        -1.124335         0.619645
 O         4.227982        -1.949266         1.235126
 C         3.744508         0.124573        -0.021582
 C         3.225269         0.418168        -1.502745
 O         1.814795         0.234756        -1.452768
 C         2.557823         0.425046         0.889236
 H        -0.268326         0.153131         1.236205
 H        -0.046738         1.299591        -0.108756
 H        -0.770840        -0.332824        -0.278639
 H         1.540968        -2.221195         0.990490
 H         1.961309        -2.301997        -0.794484
 H         4.085174        -1.807088         2.183363
 H         4.738167         0.316709         0.261803
 H         3.429944         1.390446        -1.819179
 H         3.615139        -0.421476        -2.033679
 H         2.599643         1.036370         1.694758
