19
Iteration:  2424
 C        -0.021104         0.220123         0.172244
 C         1.387101        -0.143965        -0.016327
 C         1.890000        -1.561917         0.076739
 C         3.298545        -1.132433         0.623129
 O         4.271319        -1.976647         1.258084
 C         3.721698         0.139429         0.005069
 C         3.213168         0.367480        -1.496747
 O         1.769609         0.288110        -1.473060
 C         2.559334         0.409851         0.882812
 H        -0.217613         0.143349         1.293783
 H        -0.069096         1.267802        -0.257492
 H        -0.759229        -0.326558        -0.540133
 H         1.350946        -2.084008         0.827012
 H         1.938953        -2.356451        -0.687565
 H         4.054989        -1.881547         2.214242
 H         4.861144         0.418851         0.204078
 H         3.516861         1.380942        -1.978451
 H         3.674204        -0.498982        -2.068067
 H         2.553351         1.112553         1.825612
