19
Iteration:  1222
 C        -0.059608         0.233753         0.210496
 C         1.474023        -0.131215        -0.096172
 C         2.006067        -1.699431         0.035960
 C         3.277018        -1.105639         0.604014
 O         4.114689        -1.850044         1.487316
 C         3.719924         0.153409        -0.161364
 C         3.183619         0.363797        -1.568271
 O         1.783014         0.379578        -1.381176
 C         2.674702         0.269050         0.823965
 H        -0.465422        -0.565171         0.909143
 H        -0.063179         1.185414         0.777123
 H        -0.577095         0.042610        -0.733527
 H         1.420909        -2.306674         0.788071
 H         2.247911        -2.254678        -0.925629
 H         3.545710        -2.187332         2.220289
 H         4.670042         0.519944         0.087931
 H         3.595405         1.370550        -1.974190
 H         3.410132        -0.491394        -2.291919
 H         2.688583         0.961233         1.624627
