19
Iteration:  2148
 C        -0.013153         0.207367         0.458921
 C         1.450385        -0.204154        -0.090124
 C         2.022871        -1.682214        -0.129121
 C         3.267920        -1.137138         0.529506
 O         3.910294        -1.744159         1.653422
 C         3.823184         0.030091        -0.162812
 C         3.220619         0.422854        -1.618708
 O         1.778337         0.420609        -1.428554
 C         2.668683         0.229833         0.756642
 H         0.002400        -0.177534         1.499121
 H        -0.069953         1.308588         0.363525
 H        -0.863528        -0.214685        -0.166352
 H         1.290054        -2.361803         0.390085
 H         2.112464        -2.040848        -1.222870
 H         4.616579        -2.382810         1.411501
 H         4.837437         0.475636         0.109860
 H         3.575556         1.477613        -1.769399
 H         3.478933        -0.191772        -2.537207
 H         2.848374         0.636882         1.762184
