19
Iteration:   524
 C         0.014335         0.186040         0.206022
 C         1.487379        -0.200537        -0.070274
 C         1.924681        -1.690980         0.074079
 C         3.256338        -1.129562         0.563562
 O         4.094335        -1.697116         1.478148
 C         3.808624         0.046191        -0.173815
 C         3.207930         0.444454        -1.475299
 O         1.756410         0.329163        -1.426356
 C         2.649301         0.243332         0.806961
 H        -0.544337        -0.405379         0.945440
 H         0.096117         1.202920         0.662510
 H        -0.396031         0.231515        -0.784253
 H         1.342351        -2.361224         0.840354
 H         1.972145        -2.295208        -0.917450
 H         3.396865        -2.346369         1.784939
 H         4.807362         0.251274         0.304569
 H         3.480881         1.545113        -1.696664
 H         3.574143        -0.044510        -2.359118
 H         2.620874         1.071074         1.579926
