19
Iteration:  4194
 C         0.008565         0.156902         0.179348
 C         1.495235        -0.059086        -0.065017
 C         1.977807        -1.599536        -0.016389
 C         3.313157        -1.125087         0.613384
 O         4.051821        -1.902215         1.545786
 C         3.738836         0.141881        -0.171349
 C         3.157935         0.273396        -1.548948
 O         1.744821         0.456393        -1.377511
 C         2.714257         0.267441         0.875623
 H        -0.389699        -0.436601         1.038348
 H        -0.100015         1.147267         0.514524
 H        -0.585259         0.024355        -0.694710
 H         1.451935        -2.034143         0.854617
 H         2.039465        -2.194522        -1.059248
 H         3.957263        -2.788752         1.137925
 H         4.714610         0.597511         0.165414
 H         3.491949         1.341928        -1.913714
 H         3.246228        -0.620966        -2.260808
 H         2.701033         1.178673         1.498496
