19
Iteration:  3266charge 0 multiplicity 1
 C        -0.046245         0.005780         0.235619
 C         1.476132        -0.076340        -0.104630
 C         1.971706        -1.598765        -0.075419
 C         3.321651        -1.186289         0.572435
 O         3.959860        -1.786569         1.573732
 C         3.818118         0.084818        -0.173179
 C         3.168135         0.346143        -1.616673
 O         1.787219         0.613318        -1.344778
 C         2.706359         0.215130         0.892000
 H        -0.214319        -0.702852         1.042141
 H        -0.433205         0.928440         0.751025
 H        -0.593407        -0.199548        -0.653189
 H         1.367502        -2.239859         0.731453
 H         1.966817        -2.261049        -1.033114
 H         4.832251        -2.155906         1.386705
 H         4.823190         0.291430        -0.078758
 H         3.506035         1.240034        -2.036724
 H         3.280671        -0.570010        -2.065509
 H         2.658809         0.720397         1.900175
