19
Iteration:  2497charge 0 multiplicity 1
 C         0.022010         0.226539         0.307179
 C         1.469328        -0.206566        -0.076511
 C         2.017277        -1.719593        -0.011596
 C         3.201703        -1.075311         0.691557
 O         4.096231        -1.770605         1.494495
 C         3.811307         0.025625        -0.221685
 C         3.179908         0.448565        -1.609030
 O         1.749161         0.381054        -1.401292
 C         2.659747         0.242786         0.784934
 H        -0.463081        -0.152893         1.169461
 H         0.188397         1.278164         0.301115
 H        -0.621546         0.035590        -0.608156
 H         1.358705        -2.376256         0.728891
 H         1.990896        -2.261659        -0.961969
 H         3.701834        -2.479019         2.024878
 H         4.713592         0.463920         0.244310
 H         3.436134         1.493787        -1.709469
 H         3.346935        -0.366885        -2.343926
 H         2.632221         1.043615         1.648848
