19
Iteration:  3158
 C        -0.060961         0.184877         0.029767
 C         1.430527        -0.083320        -0.031683
 C         1.838479        -1.566234         0.141479
 C         3.258093        -1.134427         0.699414
 O         4.260771        -1.979481         1.397866
 C         3.716924         0.099991        -0.109255
 C         3.216787         0.478858        -1.518534
 O         1.768260         0.394062        -1.396063
 C         2.638378         0.184613         0.911103
 H        -0.386959        -0.090431         1.029601
 H        -0.344316         1.259234        -0.232210
 H        -0.553774        -0.589457        -0.497264
 H         1.175918        -2.052162         0.896902
 H         1.875084        -2.186473        -0.772792
 H         5.002329        -2.027790         0.776634
 H         4.750110         0.299439         0.242324
 H         3.463415         1.558014        -1.814848
 H         3.578601        -0.066001        -2.438237
 H         2.658245         1.033999         1.687002
