19
Iteration:  3039
 C         0.031690         0.104938         0.230511
 C         1.481936        -0.082525        -0.097436
 C         1.992516        -1.731740        -0.084653
 C         3.288288        -1.152654         0.589511
 O         3.958424        -1.868777         1.584657
 C         3.875535         0.038346        -0.204327
 C         3.167453         0.425974        -1.562541
 O         1.664241         0.555680        -1.376155
 C         2.714746         0.216187         0.801227
 H        -0.121099        -0.271430         1.266093
 H        -0.277949         1.219575         0.339795
 H        -0.582808        -0.677379        -0.213082
 H         1.368711        -2.238541         0.574304
 H         2.009162        -2.237375        -1.027124
 H         4.373140        -1.197510         2.166469
 H         4.839378         0.490380         0.282995
 H         3.558658         1.416530        -1.871387
 H         3.538301        -0.335933        -2.326185
 H         2.839441         0.768331         1.766427
