19
Iteration:  1839
 C         0.086164         0.251162         0.253248
 C         1.415889        -0.202137        -0.139342
 C         1.880496        -1.662172        -0.043009
 C         3.326962        -1.173427         0.551418
 O         4.150345        -1.781314         1.592110
 C         3.775789         0.034951        -0.201491
 C         3.128963         0.457790        -1.540125
 O         1.764332         0.376108        -1.377387
 C         2.657403         0.183768         0.776440
 H        -0.137576         0.119421         1.314920
 H        -0.074757         1.377997         0.269355
 H        -0.703775        -0.249252        -0.357618
 H         1.401193        -2.271795         0.816541
 H         1.856138        -2.250811        -1.036961
 H         3.584868        -1.617062         2.381083
 H         4.717948         0.392097         0.158304
 H         3.531041         1.436412        -1.755021
 H         3.493293        -0.194530        -2.442270
 H         2.583793         0.805348         1.691797
