19
Iteration:  4896charge 0 multiplicity 1
 C         0.108902         0.158603         0.383335
 C         1.528532        -0.118088        -0.177041
 C         1.925369        -1.582772        -0.063254
 C         3.239259        -1.105645         0.727173
 O         4.026107        -1.819468         1.545550
 C         3.796806        -0.032535        -0.223069
 C         3.206503         0.232260        -1.623582
 O         1.747056         0.516453        -1.369606
 C         2.611272         0.355881         0.716112
 H         0.191133        -0.105709         1.401034
 H        -0.047065         1.221358         0.148048
 H        -0.702802        -0.555968        -0.015122
 H         1.263843        -2.123908         0.611065
 H         2.073353        -2.205018        -0.970059
 H         3.475099        -2.467949         2.042906
 H         4.736119         0.403743         0.139401
 H         3.801629         1.085811        -2.009340
 H         3.357925        -0.578235        -2.252558
 H         2.621662         1.039843         1.576829
