19
Iteration:  3076
 C         0.051255         0.059298         0.471430
 C         1.473781        -0.121126        -0.153354
 C         2.062079        -1.697379        -0.103517
 C         3.194783        -1.051946         0.647170
 O         3.877131        -1.923208         1.521593
 C         3.815865         0.078331        -0.195250
 C         3.282425         0.443356        -1.596153
 O         1.765261         0.451236        -1.451718
 C         2.620539         0.315009         0.783708
 H         0.142385        -0.515023         1.417584
 H        -0.048709         1.076323         0.788269
 H        -0.856805        -0.115914        -0.184636
 H         1.511661        -2.517246         0.505965
 H         2.396750        -2.139648        -1.109720
 H         4.472842        -1.516060         2.182841
 H         4.694930         0.518116         0.099224
 H         3.593318         1.479591        -1.888270
 H         3.393300        -0.347497        -2.409516
 H         2.545055         1.069076         1.591413
