19
Iteration:  4422
 C         0.051596         0.239430         0.282396
 C         1.470160        -0.127076        -0.100622
 C         1.867314        -1.650094         0.104050
 C         3.169625        -1.081915         0.581674
 O         3.963646        -1.903305         1.412694
 C         3.757762         0.115281        -0.165601
 C         3.246697         0.468737        -1.496636
 O         1.840090         0.278472        -1.508568
 C         2.705464         0.258561         0.911134
 H         0.116085        -0.018639         1.366411
 H        -0.239392         1.259622        -0.125406
 H        -0.669622        -0.480720        -0.122293
 H         1.410392        -2.204964         0.869114
 H         1.905606        -2.347450        -0.708619
 H         4.896103        -1.596744         1.368103
 H         4.896849         0.267628         0.004510
 H         3.410737         1.488571        -1.678195
 H         3.588259        -0.174004        -2.297153
 H         2.734463         0.872827         1.821348
