19
Iteration:    55charge 0 multiplicity 1
 C         0.060139         0.213027         0.335867
 C         1.465922        -0.164734        -0.141439
 C         1.979096        -1.700035        -0.096001
 C         3.220193        -1.069243         0.655633
 O         3.937043        -1.766399         1.625303
 C         3.772006         0.027566        -0.210930
 C         3.205307         0.488167        -1.546949
 O         1.819599         0.268826        -1.429333
 C         2.617485         0.243816         0.781831
 H         0.029417        -0.302523         1.267965
 H         0.031195         1.243180         0.543091
 H        -0.691291        -0.107270        -0.340894
 H         1.491153        -2.351619         0.651829
 H         2.203028        -2.081918        -1.158636
 H         4.720984        -2.141526         1.197580
 H         4.740068         0.438503         0.121073
 H         3.431836         1.544556        -1.545385
 H         3.582263         0.098793        -2.495971
 H         2.644332         0.902742         1.656817
