19
Iteration:  2293
 C        -0.042806         0.298127         0.332343
 C         1.430623        -0.065383        -0.131120
 C         1.943095        -1.694430         0.019128
 C         3.310586        -1.170316         0.581294
 O         4.100703        -1.826271         1.542010
 C         3.762736         0.075575        -0.131276
 C         3.212629         0.389745        -1.537584
 O         1.746094         0.342987        -1.491377
 C         2.648068         0.206833         0.831110
 H        -0.231937         0.003511         1.369048
 H        -0.184034         1.369341         0.215902
 H        -0.805052        -0.287605        -0.280931
 H         1.285377        -2.184038         0.685185
 H         1.997503        -2.031114        -1.058654
 H         5.009440        -1.872367         1.196496
 H         4.682934         0.473892         0.070345
 H         3.566318         1.360122        -1.797267
 H         3.498475        -0.426221        -2.192224
 H         2.590888         0.591686         1.781570
