19
Iteration:  2255
 C         0.072000         0.153840         0.029912
 C         1.504946        -0.097557         0.010742
 C         1.912734        -1.616506         0.193928
 C         3.179438        -1.153247         0.691707
 O         4.159974        -1.845023         1.291220
 C         3.679016         0.125472        -0.120966
 C         3.155180         0.266907        -1.541457
 O         1.788261         0.468442        -1.327048
 C         2.640056         0.316895         0.938188
 H        -0.420743         0.107196         1.046202
 H        -0.071559         1.225801        -0.314848
 H        -0.442630        -0.492187        -0.756953
 H         1.364958        -2.299434         0.949717
 H         1.956180        -2.225739        -0.658409
 H         4.642146        -2.436595         0.663718
 H         4.815420         0.467011         0.124609
 H         3.563895         1.146448        -2.204640
 H         3.375680        -0.523981        -2.289342
 H         2.464924         0.863387         1.963935
