19
Iteration:  4574
 C         0.031243         0.282313         0.340505
 C         1.474537        -0.164820        -0.109596
 C         1.912884        -1.652102        -0.104812
 C         3.250608        -1.188365         0.530711
 O         3.963164        -1.763844         1.592281
 C         3.762039         0.105596        -0.143804
 C         3.216131         0.450201        -1.540953
 O         1.806898         0.339767        -1.434354
 C         2.671226         0.159734         0.845664
 H         0.065022         0.273819         1.409367
 H        -0.004563         1.342273         0.156036
 H        -0.708031        -0.285807        -0.072192
 H         1.364735        -2.302625         0.664959
 H         2.146264        -2.136033        -1.114666
 H         4.505979        -2.514572         1.312583
 H         4.757080         0.436775         0.055524
 H         3.388796         1.500979        -1.915453
 H         3.642450        -0.211515        -2.344377
 H         2.829862         0.521198         1.876473
