19
Iteration:    41
 C         0.107640         0.186805         0.459044
 C         1.472706        -0.260445        -0.043134
 C         1.946865        -1.733176        -0.051671
 C         3.204688        -1.158825         0.556519
 O         3.889486        -1.804513         1.638878
 C         3.802082         0.126839        -0.187495
 C         3.289913         0.587498        -1.528196
 O         1.837065         0.241370        -1.520743
 C         2.605066         0.381023         0.698047
 H        -0.268299        -0.323392         1.352777
 H         0.008443         1.246798         0.522108
 H        -0.753733        -0.022722        -0.295624
 H         1.324271        -2.582455         0.392548
 H         1.992069        -2.248879        -1.095559
 H         4.775094        -2.163177         1.359527
 H         4.724535         0.509888         0.149612
 H         3.396953         1.671254        -1.686597
 H         3.673336        -0.126279        -2.294806
 H         2.491374         1.236480         1.238263
