19
Iteration:  4672charge 0 multiplicity 1
 C         0.040765         0.289523         0.278489
 C         1.485133        -0.167758        -0.117546
 C         1.975855        -1.685140         0.065874
 C         3.205448        -1.126592         0.679139
 O         4.067044        -1.954477         1.458436
 C         3.749989         0.062703        -0.173579
 C         3.195308         0.408292        -1.591518
 O         1.773583         0.421290        -1.445323
 C         2.638332         0.288030         0.825324
 H        -0.273559        -0.181565         1.206955
 H         0.023358         1.346757         0.512147
 H        -0.489530        -0.020712        -0.644787
 H         1.282481        -2.377136         0.682166
 H         2.112826        -2.205707        -0.944682
 H         4.315239        -1.487217         2.259344
 H         4.695808         0.422696         0.086772
 H         3.582188         1.334884        -1.927235
 H         3.426509        -0.357036        -2.323250
 H         2.523916         0.969896         1.650340
