19
Iteration:  1182charge 0 multiplicity 1
 C        -0.017947         0.084577         0.032446
 C         1.463689         0.000296        -0.068129
 C         1.912233        -1.625614         0.128143
 C         3.211515        -1.131117         0.707760
 O         4.268173        -1.829736         1.265531
 C         3.651191         0.131022        -0.083674
 C         3.189844         0.175903        -1.513185
 O         1.788905         0.542211        -1.336744
 C         2.685757         0.322511         0.956093
 H        -0.441024        -0.254709         0.920393
 H        -0.590658         0.975160        -0.239363
 H        -0.423604        -0.524196        -0.777250
 H         1.171275        -2.039961         0.853619
 H         1.850255        -2.318623        -0.739071
 H         3.893726        -2.512820         1.829941
 H         4.702249         0.343221         0.018590
 H         3.666603         1.000600        -2.049044
 H         3.459547        -0.797662        -2.015276
 H         2.793304         1.002782         1.790729
