19
Iteration:  1690charge 0 multiplicity 1
 C         0.149203         0.366882         0.295457
 C         1.440379        -0.184377        -0.044331
 C         1.905093        -1.708398         0.048973
 C         3.219962        -1.120901         0.549085
 O         4.148260        -1.820006         1.431186
 C         3.665293         0.179671        -0.162957
 C         3.223124         0.445250        -1.521040
 O         1.806730         0.141020        -1.464280
 C         2.572338         0.267421         0.815554
 H        -0.076756         0.017239         1.338487
 H         0.081779         1.425642         0.015515
 H        -0.580213        -0.025329        -0.411322
 H         1.540816        -2.361075         0.855979
 H         1.939801        -2.372112        -0.830951
 H         3.525700        -1.951715         2.186383
 H         4.538302         0.581447         0.243570
 H         3.503735         1.565104        -1.675576
 H         3.714187        -0.110319        -2.303599
 H         2.572116         0.887239         1.699271
