19
Iteration:   627
 C        -0.012279         0.199480         0.231575
 C         1.491140        -0.202403        -0.157479
 C         1.863531        -1.700993         0.054780
 C         3.215374        -1.228677         0.555026
 O         4.134552        -1.787247         1.524522
 C         3.789615         0.051320        -0.176400
 C         3.267239         0.602405        -1.481471
 O         1.818285         0.334090        -1.416005
 C         2.614427         0.232005         0.746748
 H        -0.066598         0.091743         1.353275
 H        -0.403428         1.123732        -0.238995
 H        -0.640840        -0.723240        -0.050979
 H         1.411658        -2.179590         0.858421
 H         1.825773        -2.218066        -0.863872
 H         3.754633        -1.693658         2.405969
 H         4.851625         0.212769         0.164478
 H         3.314648         1.658550        -1.446447
 H         3.488186         0.287297        -2.418945
 H         2.618629         0.996301         1.585088
