19
Iteration:  3474charge 0 multiplicity 1
 C        -0.010097         0.161125         0.231537
 C         1.445864        -0.124251        -0.075070
 C         1.962486        -1.630247        -0.034188
 C         3.272508        -1.112407         0.631771
 O         4.035378        -1.856582         1.542385
 C         3.842289        -0.011655        -0.210887
 C         3.166178         0.448105        -1.490463
 O         1.744137         0.418715        -1.437935
 C         2.675666         0.238049         0.852009
 H        -0.288914        -0.180676         1.318197
 H        -0.343868         1.263640         0.341880
 H        -0.508420        -0.387723        -0.637962
 H         1.395679        -2.247665         0.727503
 H         1.969378        -2.051366        -0.981530
 H         4.867909        -2.108768         1.096152
 H         4.753054         0.640540         0.169270
 H         3.316585         1.500439        -1.536599
 H         3.512707        -0.228779        -2.359130
 H         2.731776         0.927806         1.702702
