19
Iteration:  3479
 C         0.013443         0.178779         0.220521
 C         1.457592        -0.156957        -0.063873
 C         1.930622        -1.661399        -0.006099
 C         3.282659        -1.099970         0.631892
 O         3.987992        -1.851431         1.501546
 C         3.855315         0.008531        -0.211094
 C         3.184969         0.524750        -1.471672
 O         1.749467         0.356224        -1.428871
 C         2.693233         0.264296         0.861213
 H        -0.250476        -0.210414         1.161010
 H        -0.194463         1.203074         0.226505
 H        -0.568301        -0.479442        -0.408764
 H         1.390531        -2.268715         0.684444
 H         1.792203        -2.325471        -0.986870
 H         4.867788        -2.038985         1.129586
 H         4.645933         0.522666         0.159988
 H         3.472800         1.627783        -1.597525
 H         3.361305        -0.067000        -2.338303
 H         2.806125         1.009906         1.645358
