19
Iteration:  3682charge 0 multiplicity 1
 C         0.087994         0.217158         0.243800
 C         1.461178        -0.199366        -0.074898
 C         1.887314        -1.663720        -0.050779
 C         3.203770        -1.154541         0.621934
 O         4.063098        -1.864796         1.433787
 C         3.701540         0.105571        -0.098222
 C         3.184263         0.476908        -1.446455
 O         1.810399         0.396063        -1.451063
 C         2.666574         0.240482         0.892606
 H        -0.024437         0.167691         1.338977
 H        -0.203325         1.197268         0.009803
 H        -0.503265        -0.495636        -0.267120
 H         1.314666        -2.313735         0.766957
 H         1.949309        -2.121850        -1.084145
 H         4.841054        -2.088748         0.879704
 H         4.697885         0.358997         0.134917
 H         3.500636         1.504471        -1.650953
 H         3.475224        -0.205896        -2.249173
 H         2.799838         0.974068         1.709779
