19
Iteration:  4182charge 0 multiplicity 1
 C         0.012589         0.096529         0.183789
 C         1.487377        -0.130689        -0.078550
 C         1.997777        -1.548305         0.065344
 C         3.284051        -1.052608         0.623499
 O         3.975435        -1.891153         1.466458
 C         3.850131         0.113424        -0.173475
 C         3.147552         0.274644        -1.580252
 O         1.774041         0.532092        -1.313228
 C         2.668207         0.313124         0.857038
 H        -0.314875        -0.602548         0.944767
 H        -0.212769         1.089681         0.473700
 H        -0.475144        -0.189957        -0.753282
 H         1.396351        -2.068493         0.809953
 H         1.902678        -2.311319        -0.839459
 H         3.989152        -2.824912         1.182368
 H         4.809094         0.556845         0.001600
 H         3.604939         0.940419        -2.439293
 H         3.329534        -0.719995        -2.083583
 H         2.748053         0.846201         1.856592
