19
Iteration:  1049charge 0 multiplicity 1
 C        -0.044886         0.143565         0.150165
 C         1.443065        -0.164281        -0.088167
 C         2.005656        -1.530537         0.052613
 C         3.278966        -1.006456         0.675795
 O         4.168333        -1.843684         1.375777
 C         3.776568         0.138318        -0.088515
 C         3.185039         0.205871        -1.560968
 O         1.747141         0.421693        -1.342261
 C         2.598587         0.305619         0.882118
 H        -0.399895        -0.717765         0.790503
 H        -0.201613         1.182849         0.550941
 H        -0.490339         0.214588        -0.844000
 H         1.430879        -2.164820         0.719462
 H         2.181062        -2.070715        -0.848976
 H         3.808391        -2.722669         1.540573
 H         4.816601         0.530739         0.091559
 H         3.676715         0.937725        -2.157934
 H         3.366063        -0.726370        -2.059935
 H         2.393293         0.941697         1.774222
