19
Iteration:  2154
 C        -0.042918         0.215598         0.464229
 C         1.425046        -0.199436        -0.079098
 C         2.025043        -1.715746        -0.149856
 C         3.313210        -1.172393         0.546200
 O         3.882635        -1.705411         1.660592
 C         3.813195         0.049348        -0.223132
 C         3.223472         0.415888        -1.581707
 O         1.803181         0.441309        -1.457636
 C         2.676578         0.169953         0.746684
 H         0.016322        -0.118317         1.530786
 H         0.117780         1.322134         0.497510
 H        -0.905374        -0.146533         0.017506
 H         1.423370        -2.428539         0.382877
 H         2.148922        -1.932924        -1.149503
 H         4.619315        -2.290126         1.451011
 H         4.721476         0.379968         0.153283
 H         3.511227         1.495138        -1.661561
 H         3.465464        -0.136621        -2.444648
 H         2.836522         0.673898         1.661031
