19
Iteration:   429
 C        -0.033158         0.039323         0.085174
 C         1.479753        -0.060075        -0.122809
 C         1.889138        -1.532287        -0.011251
 C         3.222467        -1.138661         0.751151
 O         4.204783        -1.828580         1.489157
 C         3.718172         0.215256        -0.130158
 C         3.172220         0.196932        -1.509941
 O         1.815786         0.500733        -1.355021
 C         2.622245         0.250300         0.907223
 H        -0.331965         0.057894         1.177533
 H        -0.418354         1.026285        -0.328426
 H        -0.523884        -0.741602        -0.446862
 H         1.285534        -2.162648         0.546926
 H         2.092018        -1.986142        -0.960287
 H         4.507999        -2.534424         0.883985
 H         4.744605         0.631806         0.105519
 H         3.631456         0.966784        -2.113591
 H         3.327554        -0.777151        -2.127356
 H         2.649448         0.875649         1.861074
