19
Iteration:  1263charge 0 multiplicity 1
 C         0.110061         0.228971         0.458084
 C         1.430000        -0.189393        -0.142792
 C         1.969687        -1.773339        -0.125853
 C         3.173209        -1.147268         0.605312
 O         4.013125        -1.723507         1.544542
 C         3.736097         0.047235        -0.151516
 C         3.247204         0.500375        -1.534084
 O         1.858649         0.325839        -1.481549
 C         2.598877         0.252499         0.717786
 H         0.129874        -0.391451         1.453274
 H         0.309677         1.249291         0.834033
 H        -0.807318        -0.231128        -0.032389
 H         1.379952        -2.455745         0.433963
 H         2.172336        -2.083356        -1.097974
 H         3.564715        -1.634126         2.395980
 H         4.682043         0.436289         0.170892
 H         3.326549         1.487737        -1.937476
 H         3.658774        -0.261674        -2.304686
 H         2.594410         0.965040         1.509641
