19
Iteration:  4957
 C         0.011698         0.330435         0.092370
 C         1.432703        -0.082811         0.014474
 C         1.837132        -1.642821         0.236630
 C         3.207274        -1.126713         0.594471
 O         4.224588        -1.850537         1.320447
 C         3.704378         0.059151        -0.158062
 C         3.281048         0.330624        -1.558832
 O         1.807618         0.279952        -1.395879
 C         2.667486         0.290555         0.883127
 H        -0.577797        -0.213397         0.909145
 H        -0.184808         1.400284         0.277319
 H        -0.426962         0.121463        -0.828909
 H         1.207474        -2.060970         1.069407
 H         1.629842        -2.253502        -0.718224
 H         3.730495        -2.110596         2.132722
 H         4.722449         0.240371         0.042644
 H         3.671282         1.268182        -1.936790
 H         3.490657        -0.483634        -2.277503
 H         2.672410         1.065441         1.649108
