19
Iteration:   191charge 0 multiplicity 1
 C         0.193934         0.233790         0.312771
 C         1.501940        -0.292242        -0.163566
 C         1.867152        -1.679001        -0.123982
 C         3.260266        -1.149531         0.679449
 O         3.989249        -1.776765         1.664611
 C         3.733071         0.102958        -0.233923
 C         3.165614         0.556566        -1.581380
 O         1.808391         0.322827        -1.492495
 C         2.565875         0.103199         0.871639
 H        -0.058829        -0.183758         1.342514
 H         0.175091         1.371324         0.502506
 H        -0.721032         0.101066        -0.400233
 H         1.403295        -2.316459         0.692790
 H         2.102463        -2.107000        -1.104482
 H         4.914238        -1.443889         1.768379
 H         4.657548         0.453083         0.142086
 H         3.301056         1.715512        -1.581282
 H         3.624914         0.067267        -2.461754
 H         2.518314         0.833385         1.578226
