19
Iteration:  2578charge 0 multiplicity 1
 C         0.100571         0.126122         0.169291
 C         1.467427        -0.140768        -0.093266
 C         1.905049        -1.589986         0.086217
 C         3.216901        -1.101456         0.671892
 O         4.165083        -1.822880         1.421240
 C         3.795751         0.070404        -0.189238
 C         3.187498         0.381043        -1.555653
 O         1.668905         0.368376        -1.394147
 C         2.671798         0.289142         0.899367
 H        -0.208845         0.106038         1.231209
 H        -0.020569         1.176940        -0.173277
 H        -0.581462        -0.430503        -0.420963
 H         1.344229        -2.163461         0.754220
 H         2.018239        -2.103516        -0.903761
 H         3.588970        -2.317886         2.032240
 H         4.719877         0.258338         0.240877
 H         3.643618         1.307048        -1.914417
 H         3.504924        -0.231878        -2.395079
 H         2.650199         1.006563         1.617583
