19
Iteration:  2452charge 0 multiplicity 1
 C         0.090774         0.262372         0.285028
 C         1.450559        -0.195320        -0.049516
 C         1.831248        -1.672122         0.075526
 C         3.193531        -1.112025         0.653756
 O         4.095870        -1.821304         1.293107
 C         3.787508         0.179423        -0.158660
 C         3.250235         0.546663        -1.540303
 O         1.850633         0.151911        -1.447859
 C         2.614321         0.242547         0.850463
 H        -0.190008         0.002789         1.290985
 H        -0.072688         1.303617         0.034862
 H        -0.548589        -0.393077        -0.288132
 H         1.100728        -2.127048         0.904027
 H         2.043868        -2.471043        -0.651472
 H         3.785325        -1.897167         2.222323
 H         4.701333         0.546178         0.019848
 H         3.267385         1.583412        -1.497742
 H         3.759735        -0.014754        -2.293336
 H         2.537276         0.899548         1.692243
