19
Iteration:  3070
 C         0.084308         0.046717         0.445847
 C         1.492401        -0.180202        -0.142046
 C         2.062240        -1.699591        -0.104997
 C         3.179384        -1.052523         0.653154
 O         3.854832        -1.907012         1.538701
 C         3.768001         0.105638        -0.231984
 C         3.230728         0.426097        -1.634741
 O         1.799313         0.476509        -1.399602
 C         2.641983         0.293074         0.781344
 H         0.235922        -0.548257         1.348608
 H        -0.092111         1.134677         0.716773
 H        -0.819511        -0.144567        -0.097500
 H         1.360265        -2.249953         0.509154
 H         2.344711        -2.123994        -1.032066
 H         4.427960        -1.438973         2.163138
 H         4.842513         0.452458         0.165704
 H         3.578981         1.421854        -1.934541
 H         3.661279        -0.076434        -2.532036
 H         2.614833         0.935382         1.629234
