19
Iteration:    69
 C         0.091917         0.170452         0.235534
 C         1.476879        -0.167946        -0.162347
 C         2.002549        -1.617056        -0.028775
 C         3.248845        -1.208874         0.604067
 O         4.018428        -1.730121         1.602493
 C         3.770831         0.059225        -0.115843
 C         3.184870         0.420017        -1.520499
 O         1.692322         0.393920        -1.500049
 C         2.656754         0.211394         0.900805
 H        -0.318378        -0.169914         1.204868
 H        -0.020956         1.328290         0.287009
 H        -0.623613        -0.200573        -0.468760
 H         1.268543        -2.050063         0.654518
 H         2.112268        -2.228725        -0.907203
 H         4.654851        -2.335005         1.174017
 H         4.833237         0.353830         0.121779
 H         3.462862         1.452918        -1.891393
 H         3.551560        -0.237501        -2.314391
 H         2.650557         0.810007         1.913775
