19
Iteration:  1832charge 0 multiplicity 1
 C         0.027594         0.203745         0.277347
 C         1.438379        -0.171048        -0.104434
 C         1.938102        -1.659597        -0.030287
 C         3.297854        -1.187186         0.598691
 O         4.156544        -1.779544         1.573411
 C         3.734765         0.038730        -0.240289
 C         3.237944         0.358666        -1.592733
 O         1.735196         0.476344        -1.386688
 C         2.592629         0.197263         0.786037
 H        -0.052242        -0.033934         1.414732
 H         0.130920         1.348776         0.129121
 H        -0.784434        -0.232778        -0.352247
 H         1.355200        -2.206754         0.707427
 H         1.977836        -2.255974        -0.954087
 H         3.637874        -1.838739         2.408228
 H         4.688992         0.515302         0.110699
 H         3.597017         1.413526        -1.694801
 H         3.479893        -0.305452        -2.441116
 H         2.637611         0.827833         1.713422
