19
Iteration:  4457
 C        -0.001401         0.289391         0.040262
 C         1.380202        -0.112966        -0.030221
 C         1.908171        -1.641749         0.052801
 C         3.310866        -1.149753         0.678435
 O         4.213196        -1.991162         1.377049
 C         3.697301         0.093832        -0.081298
 C         3.145849         0.203812        -1.495692
 O         1.794772         0.511370        -1.319000
 C         2.585950         0.343160         0.881749
 H        -0.411006         0.338558         1.166982
 H        -0.159511         1.400877        -0.180245
 H        -0.545503        -0.446898        -0.584435
 H         1.459617        -2.253203         0.793656
 H         1.985818        -2.133624        -0.920630
 H         5.148954        -1.879220         1.098447
 H         4.670963         0.566532         0.065313
 H         3.655935         0.917952        -2.001390
 H         3.352259        -0.676406        -2.072021
 H         2.529995         1.279056         1.527273
