19
Iteration:  3256
 C         0.019890        -0.018854         0.292739
 C         1.483223        -0.148373        -0.082381
 C         1.978777        -1.685750        -0.106188
 C         3.208674        -1.136152         0.543643
 O         3.934737        -1.746459         1.616059
 C         3.782545         0.075448        -0.218412
 C         3.201418         0.352569        -1.548235
 O         1.803706         0.609959        -1.294011
 C         2.716069         0.232874         0.804969
 H        -0.313746        -0.733275         1.048478
 H        -0.126901         1.046784         0.610919
 H        -0.572314        -0.052542        -0.579938
 H         1.380416        -2.398244         0.604646
 H         1.995246        -1.969390        -1.206580
 H         4.761455        -2.136794         1.293217
 H         4.748822         0.333983        -0.071361
 H         3.674913         1.217445        -2.027429
 H         3.274944        -0.343583        -2.349166
 H         2.809573         0.917938         1.668224
