19
Iteration:  3114
 C         0.058164         0.169842         0.231222
 C         1.461418        -0.139132        -0.112872
 C         1.962840        -1.654735        -0.017538
 C         3.224574        -1.050727         0.675485
 O         4.037976        -1.932767         1.367925
 C         3.724763         0.168179        -0.152914
 C         3.206788         0.341391        -1.570694
 O         1.825258         0.412392        -1.331722
 C         2.576017         0.253643         0.961077
 H        -0.288920        -0.408357         1.077475
 H        -0.148539         1.306017         0.337188
 H        -0.621331        -0.061785        -0.573906
 H         1.462053        -2.339682         0.690233
 H         2.093134        -2.095475        -0.994238
 H         4.816393        -1.403762         1.603233
 H         4.768886         0.619383         0.104758
 H         3.633258         1.047080        -2.289348
 H         3.494979        -0.511038        -2.231019
 H         2.539262         0.857910         1.899877
