19
Iteration:  4789charge 0 multiplicity 1
 C        -0.058110         0.284344         0.092916
 C         1.461501        -0.009136        -0.016680
 C         1.861403        -1.576058         0.111923
 C         3.228113        -1.105045         0.578175
 O         4.233584        -1.799370         1.194979
 C         3.725743         0.063475        -0.041382
 C         3.273707         0.062580        -1.451484
 O         1.769346         0.410817        -1.292365
 C         2.643169         0.317272         0.881647
 H        -0.609309        -0.074783         0.887866
 H        -0.198959         1.362064         0.029669
 H        -0.176633        -0.124858        -0.982741
 H         1.270498        -1.901522         0.950834
 H         1.715183        -2.230200        -0.790188
 H         3.978350        -2.436378         1.892235
 H         4.738909         0.252012         0.211949
 H         3.788934         0.846733        -2.057454
 H         3.235852        -0.969351        -1.919888
 H         2.730710         0.802188         1.838165
