19
Iteration:  1187
 C        -0.030355         0.079870         0.008992
 C         1.471716        -0.008227        -0.036871
 C         1.912650        -1.591093         0.162467
 C         3.219303        -1.148036         0.667822
 O         4.260350        -1.812661         1.280147
 C         3.677465         0.103292        -0.093684
 C         3.168692         0.216977        -1.480303
 O         1.792484         0.524484        -1.354749
 C         2.678310         0.301033         0.944441
 H        -0.383098        -0.388162         0.993319
 H        -0.502235         1.067351        -0.190991
 H        -0.443163        -0.412863        -0.907940
 H         1.246122        -2.109263         0.852054
 H         1.996410        -2.230995        -0.734738
 H         3.853133        -2.538329         1.810618
 H         4.753098         0.253252         0.142368
 H         3.694518         0.934527        -2.145306
 H         3.148193        -0.711327        -2.071736
 H         2.768225         1.064763         1.739638
