19
Iteration:  4034charge 0 multiplicity 1
 C        -0.019894         0.181046         0.063939
 C         1.467945        -0.110035        -0.067362
 C         1.913170        -1.632174         0.153470
 C         3.294599        -1.123663         0.605945
 O         4.102380        -1.871543         1.389917
 C         3.746998         0.105359        -0.136454
 C         3.211369         0.344926        -1.536957
 O         1.740559         0.473833        -1.320584
 C         2.700945         0.264041         0.901023
 H        -0.424999        -0.380772         0.971527
 H        -0.344330         1.203477         0.424189
 H        -0.391169        -0.185074        -0.923829
 H         1.379676        -2.037929         1.092562
 H         1.858427        -2.353972        -0.650443
 H         4.185274        -2.747659         0.958731
 H         4.820880         0.407079         0.023595
 H         3.557343         1.376437        -2.018154
 H         3.454526        -0.490499        -2.195742
 H         2.777325         0.974679         1.775361
