19
Iteration:  1978
 C         0.039508         0.095649         0.346249
 C         1.507367        -0.112963        -0.093487
 C         2.033428        -1.669903        -0.022850
 C         3.242229        -1.092627         0.644947
 O         3.963905        -1.782782         1.636958
 C         3.815058         0.032875        -0.262486
 C         3.164251         0.304115        -1.605347
 O         1.733849         0.534929        -1.402610
 C         2.683799         0.286689         0.731507
 H         0.075660        -0.180141         1.370366
 H        -0.079554         1.150322         0.407276
 H        -0.732677        -0.454949        -0.236613
 H         1.499177        -2.293697         0.635912
 H         2.174566        -2.192718        -0.915874
 H         3.934250        -2.682195         1.269057
 H         4.754438         0.577827         0.039872
 H         3.624829         1.172888        -2.182307
 H         3.226915        -0.499367        -2.293553
 H         2.668128         1.001474         1.664603
