19
Iteration:   736
 C        -0.096324         0.069484         0.038617
 C         1.431892        -0.106757         0.041115
 C         1.927451        -1.577188         0.110016
 C         3.267925        -1.103026         0.626413
 O         4.243328        -1.854504         1.402565
 C         3.736729         0.047036        -0.200348
 C         3.207882         0.245689        -1.584513
 O         1.819219         0.582913        -1.335273
 C         2.610988         0.317040         0.933899
 H        -0.558218        -0.545005         0.799737
 H        -0.547926         1.001072         0.295137
 H        -0.494074        -0.327876        -0.924259
 H         1.373876        -2.174012         0.823070
 H         1.966557        -2.061088        -0.909647
 H         3.795263        -2.122992         2.243469
 H         4.787205         0.260813         0.025958
 H         3.701544         1.054340        -2.181654
 H         3.383801        -0.708219        -2.224726
 H         2.702886         1.021953         1.762410
