19
Iteration:   255charge 0 multiplicity 1
 C        -0.016499         0.041943         0.081285
 C         1.427428        -0.003952        -0.069658
 C         1.941688        -1.483840         0.075333
 C         3.273610        -1.082420         0.692759
 O         4.109266        -2.025742         1.360602
 C         3.721776         0.193590        -0.059241
 C         3.197920         0.248411        -1.540302
 O         1.821776         0.462340        -1.405755
 C         2.632509         0.363936         0.942221
 H        -0.295073        -0.415003         1.014468
 H        -0.529780         0.986368        -0.110931
 H        -0.294546        -0.660162        -0.613089
 H         1.314263        -2.111835         0.851235
 H         1.728469        -2.320365        -0.662211
 H         5.010305        -1.719128         1.459072
 H         4.746911         0.391006         0.177411
 H         3.711983         0.954434        -2.189291
 H         3.306183        -0.736977        -1.974997
 H         2.404664         1.070339         1.669525
