19
Iteration:  3384
 C         0.095757         0.158475         0.246208
 C         1.501741        -0.134096        -0.093133
 C         1.977786        -1.634353        -0.028503
 C         3.223509        -1.147837         0.626786
 O         4.000041        -1.883224         1.558116
 C         3.759593         0.003381        -0.183496
 C         3.185929         0.592143        -1.516944
 O         1.731134         0.301817        -1.416454
 C         2.664310         0.324129         0.822575
 H        -0.268740        -0.184956         1.250539
 H        -0.099206         1.299623         0.252584
 H        -0.547424        -0.411706        -0.485990
 H         1.359263        -2.220993         0.655197
 H         2.059560        -2.170533        -0.911759
 H         4.754986        -2.260525         1.048179
 H         4.721529         0.251411         0.012544
 H         3.172175         1.663523        -1.432039
 H         3.684628         0.073372        -2.392024
 H         2.696164         1.065443         1.624546
