19
Iteration:   713charge 0 multiplicity 1
 C         0.014163         0.079229         0.089008
 C         1.481011        -0.060996        -0.150461
 C         1.920295        -1.594437         0.062498
 C         3.233701        -1.061868         0.709953
 O         4.218221        -1.829802         1.308151
 C         3.803055         0.083592        -0.053906
 C         3.132044         0.192891        -1.477622
 O         1.784012         0.516175        -1.364805
 C         2.572749         0.357964         0.905832
 H        -0.390575        -0.714088         0.733573
 H        -0.458164         0.867576         0.658422
 H        -0.551339        -0.065759        -0.814440
 H         1.172173        -2.004519         0.800403
 H         2.111891        -2.330226        -0.811068
 H         3.832105        -2.522281         1.864381
 H         4.815320         0.479527         0.277522
 H         3.774973         0.828001        -2.171616
 H         3.229766        -0.868655        -1.993718
 H         2.692349         1.156222         1.702318
