19
Iteration:  3743
 C         0.042662         0.186776         0.130951
 C         1.490252        -0.126786        -0.017759
 C         1.935639        -1.580918         0.094115
 C         3.243475        -1.039530         0.682701
 O         4.099216        -1.988084         1.264059
 C         3.778032         0.155386        -0.044192
 C         3.143394         0.311505        -1.564639
 O         1.797702         0.436430        -1.316217
 C         2.574271         0.272348         0.937525
 H        -0.421862        -0.604469         0.731526
 H        -0.222388         1.304507         0.127451
 H        -0.458673        -0.041693        -0.890570
 H         1.395551        -2.020289         0.841128
 H         1.941696        -2.186568        -0.797204
 H         4.931650        -1.792579         0.789066
 H         4.764149         0.361911         0.300487
 H         3.545465         1.089416        -2.241852
 H         3.424738        -0.549695        -2.098412
 H         2.395655         0.869978         1.823179
