19
Iteration:   190
 C         0.190257         0.233708         0.312727
 C         1.500190        -0.287408        -0.168490
 C         1.873170        -1.675814        -0.123078
 C         3.257136        -1.153684         0.675762
 O         3.986421        -1.776077         1.666353
 C         3.741882         0.105292        -0.234465
 C         3.163936         0.558649        -1.582288
 O         1.807701         0.320927        -1.484869
 C         2.558701         0.106433         0.866659
 H        -0.061000        -0.178791         1.315005
 H         0.179701         1.359213         0.499368
 H        -0.676431         0.089888        -0.346564
 H         1.428089        -2.327504         0.694364
 H         2.069136        -2.170413        -1.110614
 H         4.914821        -1.428923         1.747692
 H         4.665656         0.422832         0.144086
 H         3.309235         1.688059        -1.591287
 H         3.642048         0.092191        -2.440029
 H         2.532378         0.826917         1.587004
