19
Iteration:   485charge 0 multiplicity 1
 C         0.138117         0.183012         0.288937
 C         1.500576        -0.189086        -0.124011
 C         1.914153        -1.727277         0.014213
 C         3.221882        -1.203569         0.641307
 O         4.017670        -1.898978         1.574474
 C         3.797278         0.199729        -0.156937
 C         3.183312         0.635437        -1.550297
 O         1.752941         0.215645        -1.545681
 C         2.633779         0.269738         0.835410
 H        -0.231288        -0.149686         1.314015
 H         0.191023         1.299310         0.228326
 H        -0.716432        -0.072167        -0.339153
 H         1.205897        -2.266713         0.623560
 H         2.036862        -2.134187        -0.943051
 H         4.425612        -1.355628         2.266801
 H         4.798023         0.499063         0.081561
 H         3.291316         1.696444        -1.769621
 H         3.663312         0.019767        -2.418462
 H         2.475336         1.113200         1.474158
