19
Iteration:   145charge 0 multiplicity 1
 C         0.001631         0.069315         0.188387
 C         1.466022        -0.135430        -0.075019
 C         1.938098        -1.551316         0.006149
 C         3.245430        -1.090294         0.677983
 O         4.033845        -1.917556         1.503551
 C         3.745915         0.157521        -0.158372
 C         3.262706         0.370146        -1.586073
 O         1.831647         0.370568        -1.382828
 C         2.586090         0.292042         0.872404
 H        -0.200518        -0.173272         1.241691
 H        -0.260967         1.186275         0.124755
 H        -0.638996        -0.433893        -0.465552
 H         1.360951        -1.938587         0.877544
 H         1.953733        -2.059802        -1.006856
 H         4.874935        -1.952220         0.983401
 H         4.719292         0.542996         0.217671
 H         3.566563         1.339253        -2.067236
 H         3.434185        -0.456526        -2.263165
 H         2.530818         1.098208         1.692659
