19
Iteration:   922charge 0 multiplicity 1
 C        -0.007106         0.210697         0.327092
 C         1.476343        -0.252311        -0.172336
 C         1.991949        -1.694718        -0.027272
 C         3.246569        -1.062761         0.644778
 O         4.081067        -1.811243         1.446292
 C         3.727029         0.096984        -0.145576
 C         3.213497         0.410416        -1.580048
 O         1.825532         0.317639        -1.419136
 C         2.617226         0.352499         0.856009
 H         0.024582        -0.049758         1.328897
 H        -0.003697         1.250139         0.373042
 H        -0.821112        -0.268266        -0.116641
 H         1.343019        -2.280209         0.694542
 H         1.963318        -2.111070        -1.098358
 H         3.553003        -2.455751         1.975462
 H         4.662037         0.592824         0.258338
 H         3.522512         1.423788        -1.730133
 H         3.647402        -0.359486        -2.244439
 H         2.562717         1.172691         1.651256
