19
Iteration:  3504
 C         0.107326         0.237969         0.263502
 C         1.490032        -0.196771        -0.081820
 C         1.887025        -1.671456         0.159799
 C         3.253906        -1.144964         0.557868
 O         3.976777        -1.926121         1.416789
 C         3.718826         0.198392        -0.184859
 C         3.205320         0.629236        -1.478558
 O         1.884171         0.219996        -1.493017
 C         2.616614         0.262312         0.838787
 H        -0.187631         0.091019         1.304301
 H        -0.009037         1.315375        -0.065266
 H        -0.552655        -0.540718        -0.102047
 H         1.299969        -2.212971         0.980060
 H         1.648104        -2.496560        -0.645847
 H         4.897193        -1.924197         1.122226
 H         4.777977         0.489102         0.207013
 H         3.107131         1.786815        -1.623706
 H         3.690763         0.165758        -2.336405
 H         2.345232         0.589048         1.842262
