19
Iteration:   308charge 0 multiplicity 1
 C         0.078350         0.170709         0.150541
 C         1.427594        -0.164101        -0.166832
 C         1.958186        -1.620152        -0.017509
 C         3.261913        -1.143668         0.632335
 O         4.047436        -1.882951         1.536736
 C         3.770597         0.153440        -0.109356
 C         3.184412         0.390551        -1.521171
 O         1.742493         0.383416        -1.406760
 C         2.614551         0.253194         0.892113
 H        -0.096623         0.162387         1.209403
 H        -0.044334         1.208286        -0.193698
 H        -0.614249        -0.391356        -0.379707
 H         1.428704        -2.075814         0.835399
 H         1.942291        -2.320735        -0.902560
 H         4.932485        -1.531335         1.434799
 H         4.707252         0.568098         0.216250
 H         3.491249         1.346553        -1.853208
 H         3.496775        -0.412442        -2.242535
 H         2.703561         0.703633         1.842474
