19
Iteration:  1939
 C         0.046631         0.179867         0.115191
 C         1.414925        -0.133896        -0.029514
 C         1.920655        -1.616604         0.049526
 C         3.232058        -1.082428         0.656597
 O         4.197717        -1.766052         1.379221
 C         3.801008         0.040943        -0.126344
 C         3.149121         0.194812        -1.493639
 O         1.759584         0.496803        -1.293884
 C         2.630675         0.347245         0.827911
 H        -0.467497        -0.131633         1.053892
 H        -0.187347         1.219644        -0.266643
 H        -0.531391        -0.358522        -0.650385
 H         1.214522        -2.248874         0.719659
 H         1.826344        -2.137202        -0.996759
 H         4.066821        -2.710307         1.554846
 H         4.823981         0.416982         0.043285
 H         3.584900         0.882300        -2.187587
 H         3.301222        -0.850027        -2.040413
 H         2.856715         0.830691         1.781718
