19
Iteration:  1133
 C         0.078277         0.216266         0.275412
 C         1.447499        -0.189816        -0.100499
 C         1.966907        -1.687642        -0.109066
 C         3.235273        -1.064903         0.648116
 O         4.126331        -1.866761         1.463751
 C         3.786214         0.151267        -0.122848
 C         3.218106         0.452755        -1.552557
 O         1.763911         0.292952        -1.435518
 C         2.589071         0.291843         0.893491
 H        -0.066096         0.572558         1.364876
 H        -0.268730         1.089595        -0.317227
 H        -0.795890        -0.515775         0.152758
 H         1.384794        -2.303273         0.675604
 H         2.051974        -2.385472        -1.071628
 H         3.526744        -2.337070         2.096800
 H         4.736852         0.672510         0.202994
 H         3.508347         1.551037        -1.820570
 H         3.445483        -0.265450        -2.447166
 H         2.524561         0.810907         1.888063
