19
Iteration:   661charge 0 multiplicity 1
 C         0.125029         0.277267         0.275535
 C         1.501332        -0.176186        -0.151356
 C         1.997511        -1.721224        -0.035325
 C         3.242287        -1.161356         0.566424
 O         4.102120        -1.783041         1.516613
 C         3.700841         0.123662        -0.063260
 C         3.185181         0.508666        -1.482215
 O         1.735615         0.245024        -1.511360
 C         2.601639         0.239348         0.810476
 H        -0.188522         0.045479         1.309149
 H        -0.055085         1.372795         0.343807
 H        -0.704207        -0.086151        -0.472824
 H         1.606277        -2.369131         0.674453
 H         2.004498        -2.224076        -0.940906
 H         3.586447        -2.094984         2.265167
 H         4.806044         0.209122         0.100461
 H         3.422077         1.571760        -1.539035
 H         3.620718         0.082051        -2.293667
 H         2.396285         0.762998         1.782935
