19
Iteration:  1117
 C         0.104855         0.250069         0.349565
 C         1.507043        -0.224241        -0.142603
 C         1.979517        -1.671268        -0.014660
 C         3.239607        -1.215029         0.608474
 O         4.044362        -1.758808         1.564772
 C         3.738877         0.139229        -0.162222
 C         3.165050         0.589514        -1.546138
 O         1.776110         0.278132        -1.473834
 C         2.635676         0.172949         0.790166
 H         0.320636         0.311089         1.357284
 H        -0.138815         1.136126        -0.249805
 H        -0.639969        -0.443466         0.048289
 H         1.373778        -2.344650         0.495304
 H         2.098235        -2.065811        -0.942995
 H         3.543115        -2.494104         1.984662
 H         4.739851         0.278709         0.124217
 H         3.127830         1.600201        -1.766239
 H         3.665519         0.108280        -2.323636
 H         2.478119         0.856658         1.591531
