19
Iteration:  1801
 C         0.072170         0.026045         0.242631
 C         1.483401        -0.034817        -0.113962
 C         1.966248        -1.582024        -0.030188
 C         3.154106        -1.022475         0.670567
 O         4.129088        -1.839747         1.392926
 C         3.732591         0.116808        -0.112135
 C         3.175121         0.069863        -1.500143
 O         1.818557         0.529422        -1.346997
 C         2.615130         0.432237         0.806005
 H         0.088669        -0.494919         1.226394
 H        -0.227545         1.059425         0.345661
 H        -0.687144        -0.430552        -0.329496
 H         1.316553        -2.232993         0.483815
 H         2.223338        -2.070788        -0.938379
 H         3.672778        -2.570565         1.827131
 H         4.847441         0.311656        -0.010825
 H         3.642429         0.838676        -2.204014
 H         3.218619        -0.827387        -2.030286
 H         2.502384         1.080494         1.707505
