19
Iteration:   623
 C        -0.022128         0.177130         0.237152
 C         1.448618        -0.171737        -0.131623
 C         1.888361        -1.691554         0.050893
 C         3.245494        -1.226775         0.549617
 O         4.141943        -1.806463         1.509796
 C         3.780457         0.049137        -0.146860
 C         3.238949         0.561697        -1.475017
 O         1.818378         0.347896        -1.441825
 C         2.639663         0.275936         0.763715
 H        -0.170383         0.119079         1.327977
 H        -0.391168         1.068095        -0.287485
 H        -0.466718        -0.705797        -0.080755
 H         1.193347        -2.084423         0.900108
 H         1.871368        -2.352141        -0.911069
 H         3.686539        -1.644023         2.366061
 H         4.781217         0.188719         0.160918
 H         3.346987         1.716613        -1.476153
 H         3.702115         0.212830        -2.534829
 H         2.596975         0.876152         1.631982
