19
Iteration:  3174charge 0 multiplicity 1
 C        -0.018932         0.158626         0.173214
 C         1.478771        -0.144836        -0.062244
 C         1.919411        -1.669283         0.088865
 C         3.178507        -1.157866         0.640630
 O         4.092703        -1.879135         1.343916
 C         3.758103         0.110422        -0.108045
 C         3.230494         0.512648        -1.475913
 O         1.807063         0.331925        -1.447013
 C         2.673458         0.358514         0.963172
 H        -0.460588         0.126581         1.202466
 H        -0.148966         1.149193        -0.195875
 H        -0.571150        -0.633404        -0.471502
 H         1.345066        -2.209594         0.841951
 H         1.833971        -2.255796        -0.822181
 H         4.609985        -2.367414         0.674822
 H         4.777154         0.494378         0.091180
 H         3.406618         1.541895        -1.661008
 H         3.604837        -0.224389        -2.156943
 H         2.709805         0.864339         1.878813
