19
Iteration:  1699charge 0 multiplicity 1
 C         0.085109         0.434894         0.260673
 C         1.422395        -0.245451        -0.102543
 C         1.859306        -1.732278         0.044960
 C         3.320422        -1.112906         0.559220
 O         4.137682        -1.742030         1.409735
 C         3.762676         0.110959        -0.126134
 C         3.215123         0.487817        -1.469870
 O         1.817878         0.108995        -1.447056
 C         2.583583         0.165004         0.798113
 H        -0.186587         0.332668         1.326437
 H         0.070218         1.535350         0.344619
 H        -0.802337        -0.030764        -0.240641
 H         1.393078        -2.270874         0.826253
 H         1.772929        -2.118041        -0.953046
 H         3.742266        -1.830673         2.305715
 H         4.657459         0.545989         0.184779
 H         3.251643         1.602469        -1.632545
 H         3.593952        -0.024837        -2.334960
 H         2.385284         0.824020         1.552746
