19
Iteration:  2673charge 0 multiplicity 1
 C        -0.152962         0.134216         0.181195
 C         1.443397        -0.126168        -0.077697
 C         1.975246        -1.610978         0.091184
 C         3.277927        -1.125777         0.610014
 O         4.167788        -1.833913         1.366706
 C         3.781502         0.101758        -0.162887
 C         3.206484         0.263328        -1.523330
 O         1.799930         0.443721        -1.310514
 C         2.688803         0.361399         0.809463
 H        -0.524012        -0.212679         1.157414
 H        -0.194619         1.221284         0.101449
 H        -0.790856        -0.269718        -0.721492
 H         1.445120        -2.243341         0.910515
 H         2.011905        -2.261096        -0.783953
 H         3.663373        -1.912237         2.196216
 H         4.714873         0.415600         0.172440
 H         3.601330         1.000757        -2.138960
 H         3.354082        -0.571199        -2.206066
 H         2.739945         0.857079         1.642092
