19
Iteration:  4787charge 0 multiplicity 1
 C        -0.046725         0.272831         0.086779
 C         1.466940        -0.007444        -0.008241
 C         1.866321        -1.569788         0.120776
 C         3.220506        -1.097273         0.590953
 O         4.232375        -1.805297         1.200002
 C         3.730504         0.059914        -0.049864
 C         3.267540         0.053924        -1.454419
 O         1.782047         0.424965        -1.299041
 C         2.629997         0.318192         0.881535
 H        -0.646901        -0.085333         0.882576
 H        -0.240005         1.351550         0.056954
 H        -0.282977        -0.154667        -0.923282
 H         1.292228        -1.896023         1.007491
 H         1.755390        -2.222710        -0.902760
 H         3.957536        -2.460753         1.852252
 H         4.721992         0.238849         0.161770
 H         3.757706         0.825391        -2.107242
 H         3.235838        -0.901165        -1.919485
 H         2.745596         0.784566         1.830600
