19
Iteration:   818charge 0 multiplicity 1
 C         0.114996         0.162657         0.398145
 C         1.488317        -0.178523        -0.095511
 C         1.929106        -1.665639        -0.027494
 C         3.182872        -1.088261         0.573600
 O         4.037506        -1.756172         1.437099
 C         3.788274         0.131428        -0.102786
 C         3.219014         0.427945        -1.574763
 O         1.846904         0.248855        -1.497627
 C         2.551892         0.327277         0.836757
 H         0.105254        -0.144957         1.522585
 H        -0.151770         1.263530         0.150525
 H        -0.810352        -0.369135        -0.121034
 H         1.465730        -2.311590         0.721421
 H         1.928375        -2.253335        -0.913918
 H         3.640904        -2.504280         1.925262
 H         4.789320         0.362287         0.347845
 H         3.539843         1.522384        -1.780433
 H         3.804846        -0.090717        -2.350844
 H         2.387019         0.990166         1.727624
