19
Iteration:  1761charge 0 multiplicity 1
 C        -0.074075         0.186765         0.187822
 C         1.444238        -0.157109        -0.105923
 C         1.984445        -1.612908         0.154985
 C         3.297928        -1.075116         0.646100
 O         4.116080        -1.901726         1.371245
 C         3.745033         0.129856        -0.166856
 C         3.240687         0.351773        -1.552106
 O         1.776051         0.335123        -1.394545
 C         2.670813         0.411552         0.850355
 H        -0.332265        -0.277615         1.118217
 H        -0.300536         1.289466         0.178430
 H        -0.672369        -0.314150        -0.612997
 H         1.373519        -2.088220         0.998543
 H         1.899641        -2.303871        -0.748869
 H         3.516201        -2.408242         1.970841
 H         4.803161         0.406860        -0.032540
 H         3.530122         1.325288        -1.918073
 H         3.658202        -0.490373        -2.203515
 H         2.688691         0.860994         1.811462
