19
Iteration:  2302charge 0 multiplicity 1
 C         0.094013         0.265721         0.391939
 C         1.468161        -0.183080        -0.064170
 C         1.950089        -1.621432        -0.046865
 C         3.258048        -1.110571         0.545075
 O         4.003363        -1.811986         1.580396
 C         3.749126         0.106650        -0.191892
 C         3.186998         0.393945        -1.560439
 O         1.768995         0.327712        -1.496042
 C         2.607024         0.207825         0.852713
 H        -0.032710        -0.080065         1.416950
 H        -0.069893         1.341139         0.350552
 H        -0.691956        -0.283573        -0.370295
 H         1.339838        -2.241648         0.619473
 H         1.932325        -2.173249        -1.006467
 H         4.928535        -1.849378         1.281452
 H         4.707187         0.324537         0.029358
 H         3.596571         1.373233        -1.965703
 H         3.706353        -0.231686        -2.268664
 H         2.596984         0.608319         1.814822
