19
Iteration:  4889charge 0 multiplicity 1
 C         0.098406         0.155312         0.429287
 C         1.493369        -0.137761        -0.149925
 C         1.910117        -1.587846        -0.037614
 C         3.211415        -1.096282         0.605716
 O         3.990237        -1.792043         1.598538
 C         3.788387        -0.011234        -0.244354
 C         3.293993         0.264803        -1.559737
 O         1.729960         0.496393        -1.419825
 C         2.686264         0.308198         0.698399
 H         0.246185        -0.009146         1.511316
 H        -0.154972         1.193981         0.243673
 H        -0.669965        -0.502087        -0.014380
 H         1.247796        -2.216005         0.596949
 H         2.080549        -2.282127        -1.033255
 H         3.465269        -2.494916         2.028168
 H         4.843563         0.352164        -0.038166
 H         3.630399         1.258595        -1.904788
 H         3.489466        -0.538795        -2.336671
 H         2.655144         0.984509         1.550413
