19
Iteration:   597charge 0 multiplicity 1
 C         0.002397         0.123447         0.139613
 C         1.440457        -0.165290        -0.101406
 C         1.985846        -1.556944         0.053431
 C         3.233368        -1.060552         0.677858
 O         4.100855        -1.880048         1.346447
 C         3.757087         0.174794        -0.096503
 C         3.236962         0.336052        -1.547426
 O         1.789055         0.383216        -1.395851
 C         2.614218         0.272070         0.948976
 H        -0.140010         0.070115         1.204257
 H        -0.342090         1.036815        -0.328249
 H        -0.477976        -0.855100        -0.261490
 H         1.423409        -2.170768         0.842342
 H         2.024603        -2.029536        -0.919000
 H         3.690380        -2.184568         2.184308
 H         4.801075         0.475614         0.201833
 H         3.533186         1.267363        -2.075756
 H         3.499153        -0.479066        -2.325595
 H         2.649420         1.087255         1.736261
