19
Iteration:  4506
 C         0.002498         0.131870         0.292430
 C         1.460105        -0.074246        -0.051430
 C         1.902726        -1.563444        -0.016118
 C         3.199357        -1.188005         0.607782
 O         4.043313        -1.878330         1.536301
 C         3.754811         0.072178        -0.144015
 C         3.241050         0.343044        -1.559520
 O         1.805662         0.408130        -1.396307
 C         2.686540         0.346442         0.765520
 H        -0.356556        -0.379436         1.117139
 H        -0.118528         1.134907         0.664063
 H        -0.519207        -0.127435        -0.663889
 H         1.141160        -2.132991         0.727712
 H         1.956136        -2.101979        -1.052446
 H         4.778132        -2.308101         1.058401
 H         4.742942         0.359396         0.362851
 H         3.718221         1.344311        -2.018283
 H         3.462376        -0.464097        -2.308837
 H         2.783281         1.135017         1.509417
