19
Iteration:   707
 C        -0.004260         0.132107         0.121114
 C         1.471477        -0.100437        -0.095208
 C         1.975580        -1.633812         0.071650
 C         3.218800        -1.049777         0.646312
 O         4.200875        -1.833944         1.312426
 C         3.804286         0.089595        -0.065376
 C         3.203621         0.194489        -1.448472
 O         1.780463         0.502226        -1.398615
 C         2.525070         0.385837         0.903497
 H        -0.233317        -0.724221         0.789576
 H        -0.428385         0.967434         0.737429
 H        -0.591233        -0.009496        -0.870414
 H         1.327067        -2.154092         0.751491
 H         2.154161        -2.248831        -0.768142
 H         3.710428        -2.513216         1.796095
 H         4.785835         0.348325         0.226174
 H         3.597867         0.794139        -2.237149
 H         3.283283        -0.740649        -1.927170
 H         2.506957         1.135866         1.642189
