19
Iteration:  3261charge 0 multiplicity 1
 C        -0.015552        -0.024652         0.267312
 C         1.475453        -0.112191        -0.101715
 C         1.968028        -1.664884        -0.082947
 C         3.261317        -1.179256         0.559842
 O         3.940177        -1.756833         1.589542
 C         3.784077         0.086273        -0.194761
 C         3.190269         0.352548        -1.574280
 O         1.803425         0.617195        -1.318203
 C         2.720496         0.229561         0.853141
 H        -0.242610        -0.647278         1.162403
 H        -0.319539         0.935156         0.700757
 H        -0.589888        -0.006963        -0.730559
 H         1.488243        -2.254632         0.610800
 H         1.957861        -1.994972        -1.099087
 H         4.820058        -2.145565         1.397919
 H         4.947665         0.320548        -0.150036
 H         3.608888         1.320402        -2.034343
 H         3.230124        -0.595330        -2.299574
 H         2.727274         0.814438         1.755569
