19
Iteration:  1936charge 0 multiplicity 1
 C         0.027184         0.201953         0.122323
 C         1.425682        -0.140754        -0.049826
 C         1.908080        -1.631514         0.069335
 C         3.216600        -1.075327         0.648513
 O         4.192007        -1.756285         1.342504
 C         3.786629         0.052001        -0.128530
 C         3.171827         0.181611        -1.488936
 O         1.763460         0.473414        -1.280497
 C         2.643046         0.339943         0.839560
 H        -0.451241        -0.093014         0.997703
 H        -0.188670         1.180698        -0.226954
 H        -0.424951        -0.408436        -0.702215
 H         1.274834        -2.240153         0.728739
 H         1.861532        -2.156559        -0.896238
 H         3.999343        -2.687489         1.572799
 H         4.829039         0.416863         0.142255
 H         3.594882         0.950505        -2.182022
 H         3.344024        -0.738167        -2.051007
 H         2.869526         0.929153         1.847423
