19
Iteration:  4299
 C         0.032146         0.139015         0.170352
 C         1.524141        -0.093084        -0.000852
 C         1.951032        -1.501516         0.056285
 C         3.239422        -1.078565         0.691209
 O         4.030744        -2.052545         1.326689
 C         3.768046         0.064490        -0.129570
 C         3.215160         0.265418        -1.544939
 O         1.747363         0.434139        -1.325500
 C         2.599502         0.408465         0.877484
 H        -0.363834        -0.096398         1.216454
 H        -0.058657         1.229367        -0.353935
 H        -0.272947        -0.629283        -0.665512
 H         1.242750        -2.045070         0.730686
 H         1.975102        -2.101217        -0.824816
 H         4.887722        -1.614018         1.537339
 H         4.742934         0.406356         0.132060
 H         3.574205         1.150368        -1.970503
 H         3.398655        -0.479092        -2.370462
 H         2.605516         1.365933         1.483214
