19
Iteration:  2825
 C         0.004476         0.190845         0.085854
 C         1.434289        -0.102538        -0.054365
 C         1.884027        -1.663340         0.131540
 C         3.236588        -1.114560         0.629758
 O         4.224985        -1.838658         1.324623
 C         3.743573         0.096396        -0.148786
 C         3.238493         0.380684        -1.603209
 O         1.769264         0.392921        -1.345617
 C         2.642417         0.287718         0.993693
 H        -0.538009        -0.217971         0.975298
 H        -0.098024         1.268567         0.121521
 H        -0.548227        -0.493390        -0.768783
 H         1.359212        -2.157581         0.959526
 H         1.741868        -2.248680        -0.790672
 H         3.741533        -2.283506         2.036669
 H         4.855603         0.462140        -0.018221
 H         3.434028         1.377540        -2.059469
 H         3.362738        -0.602426        -2.094581
 H         2.724647         0.878807         1.923961
