19
Iteration:  1641charge 0 multiplicity 1
 C        -0.073681         0.007844         0.208850
 C         1.483559        -0.025180         0.004151
 C         1.970977        -1.545001         0.044559
 C         3.296645        -1.167060         0.646893
 O         4.147972        -1.801209         1.447312
 C         3.716518         0.029867        -0.146707
 C         3.165310         0.164396        -1.647181
 O         1.845695         0.549088        -1.365780
 C         2.663063         0.450592         0.859552
 H        -0.351750        -0.483624         1.115094
 H        -0.545912         0.943385        -0.035869
 H        -0.664933        -0.471540        -0.616578
 H         1.274015        -2.021452         0.678987
 H         1.797176        -2.131097        -0.848306
 H         3.611823        -2.563428         1.697460
 H         4.816532         0.274582         0.170104
 H         3.734206         0.805434        -2.249705
 H         3.170839        -0.865148        -2.116072
 H         2.743484         1.326595         1.629732
