19
Iteration:  3620
 C         0.165962         0.033283         0.385247
 C         1.537762        -0.132320        -0.143853
 C         2.046860        -1.609468        -0.197239
 C         3.152185        -1.073474         0.630381
 O         3.899726        -1.804820         1.626963
 C         3.799891         0.035162        -0.193735
 C         3.180192         0.376562        -1.596352
 O         1.686001         0.512416        -1.332193
 C         2.694322         0.323469         0.807950
 H        -0.150459        -0.801128         1.090288
 H        -0.038818         1.058278         0.839802
 H        -0.511356        -0.292366        -0.497955
 H         1.412636        -2.265033         0.278619
 H         2.234062        -2.052592        -1.114134
 H         4.194828        -2.675436         1.288678
 H         4.882700         0.207662         0.000145
 H         3.661659         1.353563        -1.844174
 H         3.372239        -0.394488        -2.453724
 H         2.775746         0.864798         1.761816
