19
Iteration:  2473
 C         0.069939         0.274894         0.256972
 C         1.453864        -0.153766        -0.158261
 C         1.942465        -1.687351         0.089251
 C         3.335779        -1.164757         0.541051
 O         4.143499        -1.811326         1.518948
 C         3.704225         0.067733        -0.150879
 C         3.179758         0.570742        -1.517241
 O         1.747237         0.232608        -1.480788
 C         2.644023         0.247847         0.802903
 H         0.063650        -0.175189         1.282607
 H         0.016715         1.409814         0.257689
 H        -0.743875        -0.100601        -0.343089
 H         1.357239        -2.223206         0.931868
 H         1.587655        -2.241111        -0.829577
 H         3.514368        -2.277889         2.095783
 H         4.666393         0.229403         0.068829
 H         3.234649         1.638737        -1.428341
 H         3.613863         0.008325        -2.316444
 H         2.625767         0.871145         1.660923
