19
Iteration:  2598charge 0 multiplicity 1
 C        -0.031136         0.350601         0.238778
 C         1.442553        -0.189468        -0.075824
 C         1.939335        -1.697545         0.040999
 C         3.292903        -1.214929         0.582891
 O         4.153892        -1.774947         1.509872
 C         3.755977         0.080525        -0.223033
 C         3.153972         0.494846        -1.515928
 O         1.799951         0.250879        -1.443590
 C         2.652466         0.285606         0.827733
 H        -0.289049         0.077852         1.254193
 H        -0.210797         1.376732         0.048117
 H        -0.660306        -0.372587        -0.238756
 H         1.411538        -2.136351         0.953570
 H         1.926732        -2.363802        -0.861138
 H         3.821177        -2.562047         1.982197
 H         4.694132         0.462509         0.114356
 H         3.390548         1.611497        -1.728399
 H         3.649243        -0.040111        -2.413368
 H         2.678884         0.762920         1.682239
