19
Iteration:  4860charge 0 multiplicity 1
 C         0.128909         0.260157         0.418947
 C         1.521306        -0.161179        -0.069290
 C         1.889917        -1.609015        -0.022667
 C         3.193655        -1.113853         0.544102
 O         3.943097        -1.792077         1.583841
 C         3.792647         0.018840        -0.256043
 C         3.253980         0.511271        -1.620551
 O         1.807464         0.204352        -1.471102
 C         2.714628         0.252531         0.766560
 H         0.171895         0.066251         1.583844
 H        -0.126479         1.352531         0.452786
 H        -0.636402        -0.265946        -0.074293
 H         1.269872        -2.102784         0.740499
 H         1.972123        -2.180017        -0.822504
 H         3.323550        -2.346451         2.111275
 H         4.724533         0.455354        -0.036110
 H         3.289681         1.591722        -1.722642
 H         3.616851         0.003026        -2.559270
 H         2.589832         0.668069         1.747088
