19
Iteration:   615
 C         0.000247         0.098297         0.225693
 C         1.439281        -0.103109        -0.082921
 C         1.907490        -1.669465         0.036302
 C         3.276014        -1.155008         0.578662
 O         4.128206        -1.834827         1.463197
 C         3.754516         0.033984        -0.130249
 C         3.215510         0.518802        -1.497929
 O         1.798979         0.357583        -1.490169
 C         2.666999         0.293879         0.828511
 H        -0.285001         0.342757         1.297196
 H        -0.368065         1.021710        -0.303689
 H        -0.608562        -0.690110        -0.248746
 H         1.216215        -2.006146         0.749190
 H         1.872151        -2.439666        -0.739340
 H         3.681352        -1.709812         2.324607
 H         4.765815         0.358222         0.155292
 H         3.527253         1.550548        -1.533410
 H         3.768483        -0.017433        -2.223858
 H         2.622313         0.762603         1.813494
