19
Iteration:  2441charge 0 multiplicity 1
 C        -0.007992         0.272148         0.238488
 C         1.468400        -0.158559        -0.086565
 C         1.929456        -1.686237         0.130729
 C         3.192467        -1.030492         0.634472
 O         4.111392        -1.870547         1.208283
 C         3.717380         0.134130        -0.118164
 C         3.277377         0.440895        -1.463285
 O         1.852776         0.162857        -1.395168
 C         2.600938         0.311711         0.863853
 H        -0.107675         0.132126         1.287249
 H        -0.269816         1.281415        -0.026478
 H        -0.659879        -0.342593        -0.363471
 H         1.303265        -2.279339         0.917272
 H         1.896828        -2.176608        -0.847888
 H         4.133609        -1.870309         2.187894
 H         4.630991         0.417071         0.206559
 H         3.446647         1.482828        -1.701483
 H         3.710535        -0.007924        -2.338064
 H         2.497881         1.021695         1.630246
