19
Iteration:  3231charge 0 multiplicity 1
 C         0.126943         0.121730         0.380266
 C         1.511278        -0.138304        -0.199263
 C         2.075374        -1.680705        -0.169016
 C         3.181580        -1.150129         0.659184
 O         3.992605        -1.778742         1.635947
 C         3.765201         0.031329        -0.147425
 C         3.156779         0.451199        -1.553040
 O         1.718073         0.486808        -1.416631
 C         2.619122         0.198228         0.825958
 H        -0.029887        -0.497936         1.267103
 H         0.130321         1.216485         0.579527
 H        -0.761296        -0.045810        -0.283329
 H         1.369237        -2.381789         0.380139
 H         2.297813        -1.974016        -1.204127
 H         4.390264        -2.610484         1.328973
 H         4.861492         0.404094         0.014617
 H         3.489267         1.388627        -1.894248
 H         3.372714        -0.043540        -2.467034
 H         2.408859         0.968483         1.583035
