19
Iteration:  2176
 C         0.188547         0.242251         0.473692
 C         1.498634        -0.213450        -0.189435
 C         1.997378        -1.778858        -0.216447
 C         3.234775        -1.192548         0.545010
 O         3.921922        -1.676893         1.725450
 C         3.780526         0.037062        -0.165012
 C         3.194034         0.481733        -1.604955
 O         1.721783         0.442023        -1.411800
 C         2.584774         0.168024         0.749305
 H         0.105868        -0.300553         1.430833
 H         0.266365         1.352047         0.582560
 H        -0.550937        -0.077033        -0.164075
 H         1.302369        -2.293752         0.424184
 H         2.104692        -2.208258        -1.160749
 H         4.661629        -2.289039         1.492842
 H         4.733629         0.397182         0.188232
 H         3.477041         1.522132        -1.775659
 H         3.382854        -0.159099        -2.443137
 H         2.603233         0.636832         1.669145
