19
Iteration:  1540charge 0 multiplicity 1
 C         0.016465         0.313051         0.289459
 C         1.448982        -0.180526        -0.113266
 C         1.852987        -1.708159         0.146174
 C         3.174184        -1.123308         0.653049
 O         4.125148        -1.773883         1.415057
 C         3.780767         0.086636        -0.197716
 C         3.236060         0.586948        -1.572699
 O         1.867221         0.091775        -1.470556
 C         2.657034         0.283844         0.760195
 H        -0.247001         0.075176         1.342553
 H         0.184147         1.360153         0.403374
 H        -0.692385        -0.112921        -0.376346
 H         1.279317        -2.034812         1.025395
 H         1.881131        -2.497298        -0.589261
 H         3.607589        -2.417859         1.955481
 H         4.618724         0.485818         0.296872
 H         3.206006         1.622697        -1.593176
 H         3.793688         0.230749        -2.467670
 H         2.641135         0.839809         1.661394
