19
Iteration:  1931
 C        -0.028263         0.223729         0.110026
 C         1.472343        -0.136584        -0.070169
 C         1.887614        -1.646194         0.101308
 C         3.186588        -1.072423         0.630209
 O         4.190407        -1.747914         1.281379
 C         3.749582         0.089105        -0.133177
 C         3.221694         0.182369        -1.500236
 O         1.784347         0.418088        -1.274844
 C         2.679718         0.321547         0.907105
 H        -0.495791        -0.046331         1.123414
 H        -0.205344         1.321445        -0.103042
 H        -0.296859        -0.465235        -0.712505
 H         1.375947        -2.211356         0.898817
 H         2.008202        -2.264954        -0.807383
 H         3.777034        -2.573941         1.600924
 H         4.688137         0.337138         0.271466
 H         3.566580         1.085022        -2.048262
 H         3.379357        -0.697279        -2.167289
 H         2.721358         1.013411         1.666072
