19
Iteration:  4926
 C        -0.014520         0.229536         0.152919
 C         1.424427        -0.053117        -0.049658
 C         1.967806        -1.603919         0.040990
 C         3.253033        -1.087075         0.694068
 O         4.147386        -1.903068         1.375774
 C         3.752093         0.105455        -0.191144
 C         3.187946         0.109456        -1.546629
 O         1.771916         0.512264        -1.360511
 C         2.699981         0.325963         0.879481
 H        -0.524102        -0.152373         1.133035
 H        -0.282941         1.335102         0.177679
 H        -0.615668        -0.189098        -0.652754
 H         1.323932        -2.173080         0.758717
 H         2.053241        -2.108606        -0.915199
 H         3.707068        -2.033348         2.230606
 H         4.747933         0.426427        -0.023323
 H         3.841558         0.685409        -2.213459
 H         3.189119        -1.010429        -1.940723
 H         2.749324         0.914272         1.804107
