19
Iteration:    42charge 0 multiplicity 1
 C         0.106756         0.193406         0.449009
 C         1.464065        -0.256048        -0.040511
 C         1.948289        -1.736907        -0.056389
 C         3.205995        -1.155394         0.560115
 O         3.892758        -1.803070         1.641902
 C         3.804255         0.116029        -0.198426
 C         3.285926         0.588820        -1.524446
 O         1.839548         0.241002        -1.512279
 C         2.602763         0.381005         0.701931
 H        -0.253176        -0.309791         1.328467
 H         0.008252         1.207671         0.544259
 H        -0.742564        -0.038863        -0.276209
 H         1.321006        -2.582975         0.402580
 H         2.016016        -2.243256        -1.130117
 H         4.762224        -2.149889         1.336873
 H         4.719847         0.521837         0.137285
 H         3.410321         1.643725        -1.692293
 H         3.672231        -0.111308        -2.299069
 H         2.488515         1.229127         1.249102
