19
Iteration:  3338
 C         0.015073         0.309004         0.205316
 C         1.424918        -0.191168        -0.101977
 C         1.851166        -1.652264         0.027484
 C         3.273323        -1.191654         0.495069
 O         4.191187        -1.839097         1.437497
 C         3.703143         0.206447        -0.039322
 C         3.214522         0.497656        -1.466923
 O         1.853503         0.244571        -1.480827
 C         2.555359         0.188156         0.933071
 H        -0.150890         0.352197         1.316572
 H        -0.116373         1.367459        -0.120447
 H        -0.799625        -0.462375        -0.102988
 H         1.294787        -2.104800         0.801213
 H         1.667707        -2.257609        -0.926986
 H         4.896453        -2.313345         0.952357
 H         4.713688         0.511731         0.441231
 H         3.431971         1.614684        -1.620813
 H         3.611629        -0.307378        -2.146651
 H         2.429365         0.860683         1.829077
