19
Iteration:  3703
 C        -0.141899         0.200726         0.102475
 C         1.418969        -0.064771        -0.030539
 C         1.906526        -1.563139         0.098146
 C         3.240947        -1.159807         0.657617
 O         4.206805        -1.955991         1.313144
 C         3.826524         0.074071        -0.100061
 C         3.264184         0.403470        -1.507145
 O         1.793478         0.398864        -1.335086
 C         2.563535         0.253983         0.925437
 H        -0.508356         0.063719         1.125629
 H        -0.349104         1.196751        -0.156048
 H        -0.557410        -0.323904        -0.704679
 H         1.326755        -2.075820         1.017739
 H         2.000695        -2.127420        -0.901085
 H         4.985634        -2.057264         0.743909
 H         4.756220         0.344686         0.281525
 H         3.563917         1.441474        -1.876232
 H         3.457435        -0.419576        -2.400211
 H         2.515902         0.882865         1.841795
