19
Iteration:  4751charge 0 multiplicity 1
 C         0.062461         0.177942         0.266551
 C         1.499757        -0.056731        -0.082330
 C         2.020097        -1.566383         0.046644
 C         3.221985        -1.129209         0.691439
 O         4.077312        -1.973784         1.470200
 C         3.775730         0.039531        -0.181969
 C         3.203823         0.254078        -1.564952
 O         1.728753         0.511146        -1.418958
 C         2.630566         0.379833         0.746531
 H        -0.185622        -0.116253         1.374549
 H        -0.254189         1.216777         0.060493
 H        -0.640654        -0.380820        -0.287471
 H         1.355093        -2.132009         0.810552
 H         2.057068        -2.359165        -0.867492
 H         3.415430        -2.454823         1.986461
 H         4.809297         0.464229         0.075582
 H         3.574122         1.167811        -2.023569
 H         3.400112        -0.569390        -2.196089
 H         2.744502         1.131123         1.547010
