19
Iteration:  1977charge 0 multiplicity 1
 C         0.034615         0.101662         0.340783
 C         1.499225        -0.109569        -0.095716
 C         2.035763        -1.671563        -0.021126
 C         3.246398        -1.097072         0.652702
 O         3.972196        -1.785889         1.636110
 C         3.815081         0.033454        -0.260706
 C         3.168656         0.300929        -1.612076
 O         1.734104         0.540512        -1.403318
 C         2.674490         0.284888         0.738177
 H         0.065462        -0.167686         1.380335
 H        -0.103259         1.150115         0.422614
 H        -0.716660        -0.475933        -0.256143
 H         1.500940        -2.277208         0.648285
 H         2.194834        -2.178976        -0.930792
 H         3.931932        -2.687879         1.284610
 H         4.732640         0.597885         0.021605
 H         3.615329         1.182377        -2.186460
 H         3.199966        -0.532038        -2.288085
 H         2.724887         0.962667         1.645692
