19
Iteration:  2931
 C         0.096045         0.151257         0.221600
 C         1.475392        -0.176918        -0.141419
 C         1.939392        -1.650398         0.052810
 C         3.206495        -1.102934         0.639672
 O         4.132880        -1.874703         1.467710
 C         3.730164         0.036508        -0.185308
 C         3.151056         0.525333        -1.575921
 O         1.714751         0.365931        -1.465527
 C         2.711252         0.196174         0.954414
 H        -0.173252        -0.211241         1.190217
 H         0.046966         1.282024         0.205923
 H        -0.579533         0.183621        -0.618939
 H         1.303764        -2.169033         0.781815
 H         1.967163        -2.208150        -0.986328
 H         3.852537        -1.533645         2.329190
 H         4.812769         0.333786         0.209871
 H         3.439806         1.643775        -1.724248
 H         3.509645         0.107162        -2.525830
 H         2.682189         0.701908         1.873605
