19
Iteration:  4252charge 0 multiplicity 1
 C         0.105558         0.293737         0.320156
 C         1.495637        -0.181746        -0.107124
 C         1.831094        -1.659885         0.059539
 C         3.269347        -1.197570         0.489007
 O         4.009602        -1.827143         1.529583
 C         3.751488         0.119168        -0.110355
 C         3.202454         0.541406        -1.514658
 O         1.825308         0.276278        -1.498984
 C         2.596835         0.173698         0.786473
 H         0.146640         0.081186         1.409387
 H         0.141831         1.415538         0.124402
 H        -0.767413        -0.173477        -0.194716
 H         1.371759        -2.186615         0.988595
 H         1.605858        -2.349699        -0.802816
 H         4.947648        -1.848063         1.265767
 H         4.647573         0.494484         0.388828
 H         3.554560         1.565895        -1.796442
 H         3.701488        -0.056174        -2.359570
 H         2.397829         0.547058         1.770924
