19
Iteration:  3108
 C         0.053979         0.152393         0.256028
 C         1.479339        -0.110288        -0.100556
 C         1.968059        -1.596059        -0.086104
 C         3.254345        -1.063984         0.653465
 O         4.034501        -1.947437         1.405137
 C         3.717418         0.173494        -0.123248
 C         3.202291         0.306572        -1.573080
 O         1.822557         0.381868        -1.365208
 C         2.574032         0.297389         0.929509
 H        -0.220223        -0.421334         1.171165
 H         0.109585         1.170902         0.581057
 H        -0.758525        -0.120650        -0.468711
 H         1.393214        -2.272246         0.564854
 H         2.086780        -2.118241        -1.073242
 H         4.812936        -1.511486         1.797789
 H         4.599476         0.627534         0.120688
 H         3.585666         1.243070        -2.100467
 H         3.361829        -0.592697        -2.203894
 H         2.460598         0.876115         1.864059
