19
Iteration:  2515
 C         0.067740         0.160912         0.247984
 C         1.505656        -0.128982        -0.084621
 C         1.953396        -1.638919        -0.031243
 C         3.212253        -1.087718         0.571272
 O         4.148929        -1.806195         1.479395
 C         3.697694         0.110795        -0.157199
 C         3.183997         0.243368        -1.538932
 O         1.768321         0.441176        -1.362653
 C         2.623676         0.328497         0.868464
 H        -0.059516        -0.505074         1.164915
 H        -0.210148         1.256832         0.518794
 H        -0.567370        -0.067346        -0.578138
 H         1.351081        -2.300997         0.509252
 H         2.250222        -2.160725        -0.973313
 H         3.647555        -2.350353         2.106474
 H         4.705263         0.272641        -0.030102
 H         3.493329         1.136907        -2.105132
 H         3.350169        -0.594374        -2.257262
 H         2.575501         1.054435         1.635255
