19
Iteration:   641
 C         0.097158         0.181856         0.250024
 C         1.417281        -0.228883        -0.132157
 C         1.880814        -1.777008        -0.005270
 C         3.223488        -1.126814         0.653314
 O         4.077476        -1.728280         1.499093
 C         3.799845        -0.004142        -0.245727
 C         3.216836         0.675516        -1.491940
 O         1.824219         0.294210        -1.429929
 C         2.629583         0.150410         0.799636
 H         0.055234         0.286700         1.324986
 H         0.065863         1.247196        -0.020017
 H        -0.882027        -0.314816        -0.151321
 H         1.246898        -2.295054         0.765767
 H         1.911279        -2.393397        -0.878172
 H         3.629849        -1.783479         2.371584
 H         4.675488         0.501983         0.197116
 H         3.477921         1.719821        -1.470673
 H         3.746286         0.315574        -2.379297
 H         2.610820         0.947866         1.556108
