19
Iteration:  3418charge 0 multiplicity 1
 C         0.011681         0.087814         0.306366
 C         1.475141        -0.162686        -0.135208
 C         2.039818        -1.636884        -0.095899
 C         3.272221        -1.084032         0.531311
 O         3.985800        -1.806008         1.527475
 C         3.750215         0.122677        -0.144066
 C         3.233800         0.295533        -1.551356
 O         1.771375         0.549398        -1.344763
 C         2.613519         0.271011         0.885275
 H        -0.144204        -0.677964         1.119975
 H        -0.184173         1.180032         0.655801
 H        -0.772302        -0.018325        -0.518991
 H         1.463687        -2.055450         0.766162
 H         2.042957        -2.228599        -0.935722
 H         4.375356        -2.643637         1.198817
 H         4.750862         0.397688         0.197317
 H         3.623710         1.012258        -2.250961
 H         3.498176        -0.662781        -2.140624
 H         2.611903         0.844183         1.796763
