19
Iteration:   193
 C         0.193156         0.236597         0.313415
 C         1.502453        -0.291978        -0.151763
 C         1.862172        -1.693821        -0.120539
 C         3.265341        -1.141161         0.681356
 O         3.996380        -1.779764         1.660961
 C         3.712445         0.094756        -0.227091
 C         3.172553         0.555438        -1.576664
 O         1.806308         0.325082        -1.507721
 C         2.583357         0.098014         0.872511
 H        -0.050530        -0.190469         1.362992
 H         0.181207         1.357363         0.496002
 H        -0.768725         0.118219        -0.479109
 H         1.345396        -2.283887         0.650761
 H         2.161087        -1.994542        -1.093080
 H         4.896159        -1.476590         1.799689
 H         4.667428         0.536538         0.140880
 H         3.293219         1.728403        -1.575385
 H         3.585249         0.022603        -2.502379
 H         2.483245         0.897887         1.617929
