19
Iteration:  1833charge 0 multiplicity 1
 C         0.031378         0.208863         0.273182
 C         1.432475        -0.173725        -0.108056
 C         1.928879        -1.660044        -0.032665
 C         3.304511        -1.188668         0.593913
 O         4.157100        -1.780111         1.577539
 C         3.738400         0.040004        -0.241225
 C         3.228004         0.365456        -1.590761
 O         1.737732         0.466058        -1.384057
 C         2.597925         0.197233         0.785656
 H        -0.047222        -0.004835         1.394106
 H         0.124645         1.322664         0.153371
 H        -0.758730        -0.227358        -0.344110
 H         1.378043        -2.201999         0.702545
 H         1.964962        -2.239724        -0.937284
 H         3.630330        -1.812535         2.404456
 H         4.689907         0.503461         0.125170
 H         3.601421         1.424924        -1.680520
 H         3.475693        -0.272151        -2.414844
 H         2.628392         0.809813         1.701478
