19
Iteration:  3253charge 0 multiplicity 1
 C         0.048692         0.003355         0.312962
 C         1.490121        -0.168720        -0.069866
 C         1.978850        -1.691318        -0.127498
 C         3.195020        -1.112358         0.547999
 O         3.932389        -1.742515         1.628057
 C         3.770758         0.054940        -0.234639
 C         3.201768         0.363387        -1.542084
 O         1.797333         0.600776        -1.282806
 C         2.702196         0.236841         0.780674
 H        -0.348905        -0.777808         0.957733
 H        -0.022343         1.073035         0.594577
 H        -0.620773        -0.156024        -0.575852
 H         1.358950        -2.402200         0.502521
 H         2.043532        -2.033211        -1.166680
 H         4.721248        -2.147142         1.204548
 H         4.832566         0.400086         0.060657
 H         3.681946         1.183005        -1.982042
 H         3.326419        -0.297019        -2.382354
 H         2.836212         0.951594         1.631071
