19
Iteration:  4153
 C        -0.021454         0.026250         0.227265
 C         1.492637        -0.048122        -0.084741
 C         1.913292        -1.564614        -0.017417
 C         3.216857        -1.120861         0.659604
 O         4.026999        -1.830453         1.447861
 C         3.779257         0.010255        -0.143614
 C         3.183245         0.252793        -1.568042
 O         1.839137         0.584237        -1.342776
 C         2.679756         0.317845         0.868365
 H        -0.094335        -0.345713         1.317565
 H        -0.436978         1.037792         0.358602
 H        -0.442153        -0.685477        -0.501539
 H         1.193029        -2.011674         0.718721
 H         1.922073        -2.087493        -0.946286
 H         4.495695        -2.606564         1.133210
 H         4.794564         0.509793         0.087727
 H         3.687300         0.954598        -2.146200
 H         3.343142        -0.712390        -2.085242
 H         2.894884         1.166533         1.456400
