19
Iteration:  2568charge 0 multiplicity 1
 C         0.047612         0.129910         0.178546
 C         1.519520        -0.132264        -0.055460
 C         1.963307        -1.606109         0.065312
 C         3.217216        -1.092790         0.678131
 O         4.113977        -1.842145         1.357440
 C         3.743408         0.039893        -0.133321
 C         3.195061         0.315058        -1.562370
 O         1.749109         0.428638        -1.377862
 C         2.636012         0.364256         0.847955
 H        -0.192496        -0.137241         1.243096
 H        -0.277886         1.176143        -0.075039
 H        -0.413663        -0.636167        -0.382980
 H         1.346502        -2.081743         0.744933
 H         2.047404        -2.219304        -0.862180
 H         3.837284        -2.245689         2.190982
 H         4.688403         0.459813         0.092737
 H         3.431862         1.294947        -1.932002
 H         3.329881        -0.540463        -2.172396
 H         2.672398         1.083812         1.616046
