19
Iteration:  4920charge 0 multiplicity 1
 C        -0.018985         0.231592         0.214765
 C         1.503777        -0.052229        -0.068747
 C         1.963063        -1.606477         0.044947
 C         3.259881        -1.123972         0.704132
 O         4.119231        -1.900496         1.411257
 C         3.695697         0.124793        -0.196127
 C         3.170356         0.079355        -1.587943
 O         1.772800         0.573149        -1.401056
 C         2.667554         0.329531         0.897133
 H        -0.298527        -0.212647         1.120992
 H        -0.158271         1.288063         0.096220
 H        -0.580305        -0.361127        -0.578726
 H         1.405418        -2.327684         0.642633
 H         2.330960        -2.169326        -0.910673
 H         3.723707        -2.188674         2.251508
 H         4.803292         0.246565         0.008311
 H         3.713721         0.746940        -2.284076
 H         3.294819        -0.894359        -1.941636
 H         2.738122         1.080077         1.699231
