19
Iteration:  4747charge 0 multiplicity 1
 C         0.080122         0.176647         0.292672
 C         1.483376        -0.054567        -0.059921
 C         2.018296        -1.585503         0.023114
 C         3.238651        -1.121796         0.647123
 O         4.035241        -1.956342         1.497288
 C         3.809836         0.015053        -0.198354
 C         3.165826         0.302636        -1.541454
 O         1.740583         0.487059        -1.436116
 C         2.637530         0.371871         0.723038
 H         0.038596        -0.031589         1.381752
 H        -0.193910         1.235600         0.134503
 H        -0.604108        -0.508982        -0.360830
 H         1.433758        -2.152461         0.731424
 H         2.023302        -2.210211        -0.775128
 H         3.401944        -2.419983         2.097411
 H         4.771546         0.421827         0.066574
 H         3.539431         1.249755        -1.928103
 H         3.466944        -0.617390        -2.168721
 H         2.648674         1.043496         1.568897
