19
Iteration:  1730charge 0 multiplicity 1
 C         0.103328         0.415960         0.190504
 C         1.462303        -0.194363        -0.089881
 C         1.860242        -1.768293         0.144265
 C         3.239632        -1.206947         0.620915
 O         4.232532        -1.718992         1.427049
 C         3.655782        -0.012819        -0.187383
 C         3.172956         0.567108        -1.475362
 O         1.782734         0.213232        -1.494616
 C         2.618493         0.190802         0.860792
 H        -0.187658         0.046632         1.192020
 H         0.047911         1.537997        -0.138163
 H        -0.635356        -0.126122        -0.539363
 H         1.237418        -2.404588         0.807598
 H         1.808848        -2.234303        -0.873517
 H         3.937943        -1.806748         2.339160
 H         4.675215         0.259010         0.019739
 H         3.323098         1.623578        -1.443279
 H         3.752886         0.200718        -2.376866
 H         2.588980         0.838142         1.687302
