19
Iteration:  2203
 C         0.067975         0.149768         0.342430
 C         1.484137        -0.144738        -0.143055
 C         1.982661        -1.689110        -0.030308
 C         3.209170        -1.109633         0.666815
 O         3.996619        -1.828671         1.533323
 C         3.745836         0.110529        -0.184028
 C         3.219910         0.421011        -1.557164
 O         1.776583         0.431213        -1.425862
 C         2.629610         0.282092         0.860372
 H        -0.205537        -0.498937         1.182952
 H        -0.032576         1.219693         0.555106
 H        -0.465993        -0.389484        -0.556100
 H         1.362166        -2.219697         0.730427
 H         2.153662        -2.137316        -1.080327
 H         4.395815        -2.578130         1.034361
 H         4.829506         0.393335        -0.030987
 H         3.598562         1.381978        -2.026866
 H         3.377711        -0.450199        -2.250019
 H         2.678601         1.154693         1.634135
