19
Iteration:  1593
 C         0.026018         0.237077         0.264145
 C         1.416472        -0.184504        -0.065307
 C         1.947494        -1.673899         0.035585
 C         3.279031        -1.117555         0.681664
 O         4.142691        -1.833309         1.493306
 C         3.796502         0.120764        -0.216758
 C         3.200564         0.309118        -1.600725
 O         1.764963         0.422283        -1.433653
 C         2.579020         0.254883         0.823860
 H        -0.348575        -0.035434         1.271321
 H         0.008882         1.350302         0.054987
 H        -0.764435        -0.198304        -0.385741
 H         1.577292        -2.535336         0.717503
 H         2.031701        -2.150525        -0.983200
 H         3.734970        -1.695858         2.380640
 H         4.797053         0.280567         0.026243
 H         3.442227         1.360264        -1.955227
 H         3.613419        -0.446544        -2.309917
 H         2.587657         1.044366         1.523374
