19
Iteration:  1738
 C         0.120005         0.331015         0.153905
 C         1.500887        -0.186449        -0.058602
 C         1.862999        -1.717513         0.156282
 C         3.228694        -1.202516         0.654859
 O         4.199612        -1.757689         1.395592
 C         3.738149         0.021530        -0.182196
 C         3.138205         0.527628        -1.504950
 O         1.772856         0.258186        -1.451190
 C         2.569699         0.203547         0.832051
 H        -0.187415         0.065382         1.158414
 H         0.093073         1.413407        -0.051555
 H        -0.512408        -0.146771        -0.596524
 H         1.236708        -2.319063         0.935053
 H         1.819757        -2.255741        -0.839663
 H         3.856133        -1.942674         2.278734
 H         4.783414         0.401580         0.138830
 H         3.302226         1.623073        -1.517322
 H         3.686264         0.057766        -2.396647
 H         2.603916         1.107317         1.524267
