19
Iteration:  3819charge 0 multiplicity 1
 C         0.083262         0.101040         0.436243
 C         1.473021        -0.203665        -0.138550
 C         1.987730        -1.648533        -0.162063
 C         3.268825        -1.124905         0.620261
 O         3.834938        -1.922652         1.623758
 C         3.890477         0.100522        -0.254692
 C         3.191114         0.507696        -1.593441
 O         1.784187         0.496762        -1.360112
 C         2.645218         0.230915         0.767876
 H         0.134094        -0.168971         1.526573
 H        -0.231653         1.210143         0.294150
 H        -0.773093        -0.475288        -0.119390
 H         1.515899        -2.166560         0.585204
 H         2.069817        -2.165461        -1.096844
 H         4.799535        -1.865333         1.541124
 H         4.838385         0.456082        -0.043697
 H         3.583216         1.494475        -1.833113
 H         3.359613        -0.215889        -2.443782
 H         2.454437         0.901461         1.632948
