19
Iteration:  2477
 C         0.075237         0.303025         0.253155
 C         1.428435        -0.151070        -0.150310
 C         1.957412        -1.677774         0.068895
 C         3.364489        -1.191571         0.556640
 O         4.140527        -1.795995         1.535415
 C         3.719854         0.043100        -0.177357
 C         3.176691         0.542295        -1.520611
 O         1.727124         0.261641        -1.470553
 C         2.616757         0.231012         0.793916
 H        -0.075119        -0.186775         1.189831
 H         0.012707         1.346599         0.366428
 H        -0.771013        -0.180356        -0.318375
 H         1.375613        -2.176587         0.925601
 H         1.822068        -2.332837        -0.804086
 H         3.447106        -2.319285         1.999817
 H         4.811415         0.376088        -0.000700
 H         3.259667         1.618221        -1.293696
 H         3.660902        -0.000942        -2.350889
 H         2.654414         0.962288         1.712762
