19
Iteration:  3751
 C        -0.018518         0.197362         0.191411
 C         1.448205        -0.107942        -0.021856
 C         1.968162        -1.603534         0.007726
 C         3.247328        -1.085439         0.686890
 O         4.091603        -1.961785         1.311488
 C         3.778714         0.096032        -0.093843
 C         3.191962         0.315642        -1.534664
 O         1.778526         0.444083        -1.384786
 C         2.594727         0.286394         0.918331
 H        -0.433421        -0.397797         1.003470
 H        -0.385680         1.247114         0.521260
 H        -0.414349        -0.062590        -0.845082
 H         1.492331        -2.137109         0.879606
 H         1.979576        -2.108299        -0.962507
 H         5.010345        -1.843683         1.010263
 H         4.774723         0.543882         0.337814
 H         3.541138         1.226389        -1.948036
 H         3.634182        -0.609596        -2.028003
 H         2.488357         0.989752         1.722626
