19
Iteration:  3716
 C        -0.120171         0.223930         0.030624
 C         1.395136        -0.131024         0.016238
 C         1.909925        -1.615228         0.154434
 C         3.303665        -1.078557         0.613885
 O         4.176150        -1.977755         1.247169
 C         3.733823         0.108273        -0.048002
 C         3.215832         0.328763        -1.438584
 O         1.814516         0.478570        -1.344744
 C         2.652300         0.279766         0.928788
 H        -0.655583        -0.311461         0.828241
 H        -0.309644         1.263991        -0.162334
 H        -0.624756        -0.312765        -0.795391
 H         1.426596        -2.170669         1.101249
 H         1.691549        -2.344715        -0.670674
 H         4.937182        -2.005882         0.635621
 H         4.744942         0.557192         0.243536
 H         3.664516         1.188066        -1.929217
 H         3.570213        -0.567831        -2.108443
 H         2.759630         1.050766         1.702215
