19
Iteration:  1590
 C         0.035999         0.257042         0.278468
 C         1.402864        -0.197101        -0.082016
 C         1.942044        -1.682234         0.043973
 C         3.265088        -1.103236         0.701523
 O         4.137898        -1.837954         1.494132
 C         3.799307         0.132595        -0.236493
 C         3.219502         0.344271        -1.602136
 O         1.759425         0.377176        -1.445905
 C         2.574618         0.242632         0.824376
 H        -0.315123        -0.010324         1.287982
 H         0.132027         1.414201         0.146291
 H        -0.755489        -0.289284        -0.393310
 H         1.529394        -2.526247         0.675628
 H         1.981924        -2.080843        -1.019501
 H         3.761824        -1.705541         2.381079
 H         4.874454         0.377179         0.016265
 H         3.501613         1.436253        -1.945229
 H         3.601104        -0.401416        -2.300072
 H         2.600099         0.976267         1.609900
