19
Iteration:  3896charge 0 multiplicity 1
 C        -0.069516         0.319036         0.104587
 C         1.378929        -0.127103        -0.100368
 C         1.905205        -1.622262         0.085195
 C         3.317345        -1.175642         0.635865
 O         4.253784        -1.873515         1.354086
 C         3.779112         0.084777        -0.074086
 C         3.201642         0.368117        -1.491446
 O         1.751208         0.401473        -1.381981
 C         2.556903         0.224634         0.941566
 H        -0.574986        -0.039259         1.051919
 H        -0.009916         1.415479         0.343405
 H        -0.583314         0.048450        -0.862021
 H         1.384655        -2.125667         0.847612
 H         1.914998        -2.394127        -0.731143
 H         4.554940        -2.601622         0.786431
 H         4.805791         0.397702         0.154812
 H         3.530266         1.365340        -1.714061
 H         3.667369        -0.396657        -2.198562
 H         2.536355         0.774876         1.920104
