19
Iteration:  4760
 C        -0.000563         0.190494         0.235692
 C         1.479822        -0.084787        -0.150721
 C         1.943057        -1.596583         0.073895
 C         3.265130        -1.070721         0.744854
 O         4.128113        -1.973787         1.401116
 C         3.714777         0.068243        -0.134418
 C         3.240208         0.194203        -1.630288
 O         1.760072         0.525186        -1.375281
 C         2.673843         0.371972         0.868031
 H        -0.390176        -0.107159         1.287561
 H        -0.221909         1.268500         0.083501
 H        -0.647258        -0.398268        -0.482347
 H         1.210849        -1.979019         0.822607
 H         2.129106        -2.195575        -0.821828
 H         3.602716        -2.617691         1.893944
 H         4.767515         0.457195         0.084505
 H         3.716603         0.998691        -2.162348
 H         3.228604        -0.663095        -2.319174
 H         2.745066         1.293781         1.482484
