19
Iteration:  1647
 C        -0.056220         0.014827         0.210332
 C         1.465370        -0.008898        -0.014389
 C         1.985666        -1.560412         0.057581
 C         3.288988        -1.096747         0.653342
 O         4.137781        -1.850519         1.436784
 C         3.740102         0.012506        -0.159149
 C         3.216991         0.171033        -1.575348
 O         1.811121         0.507689        -1.365869
 C         2.616015         0.466639         0.802856
 H        -0.372157        -0.377510         1.222967
 H        -0.577561         1.021353         0.081928
 H        -0.648580        -0.400868        -0.612559
 H         1.271026        -2.036216         0.838073
 H         1.916324        -2.173509        -0.896111
 H         3.692533        -2.674239         1.734472
 H         4.662148         0.442145         0.045464
 H         3.663626         1.018725        -2.233677
 H         3.346251        -0.755167        -2.152987
 H         2.931087         1.193995         1.504941
