19
Iteration:   147charge 0 multiplicity 1
 C        -0.000666         0.081837         0.211377
 C         1.439080        -0.151754        -0.071850
 C         1.961476        -1.576634         0.011382
 C         3.235010        -1.072458         0.651952
 O         4.016894        -1.906409         1.506432
 C         3.757606         0.140209        -0.145823
 C         3.272130         0.380292        -1.583405
 O         1.839342         0.374925        -1.397229
 C         2.586707         0.286102         0.872678
 H        -0.161148        -0.197247         1.301244
 H        -0.227982         1.230635         0.117390
 H        -0.689963        -0.447088        -0.537641
 H         1.433255        -1.967099         0.915135
 H         1.919210        -2.048376        -0.963830
 H         4.875664        -1.909848         1.011680
 H         4.717040         0.519768         0.135186
 H         3.559047         1.410303        -2.028067
 H         3.447135        -0.439398        -2.289209
 H         2.549709         1.045299         1.607420
