19
Iteration:  4081charge 0 multiplicity 1
 C         0.086027         0.354164         0.333293
 C         1.444676        -0.165826        -0.151002
 C         1.885072        -1.676010         0.041625
 C         3.217092        -1.162168         0.528454
 O         4.065346        -1.870689         1.490624
 C         3.727598         0.180316        -0.091158
 C         3.161926         0.564002        -1.503505
 O         1.821537         0.140289        -1.541398
 C         2.647769         0.213795         0.889136
 H        -0.082129         0.130721         1.319296
 H         0.157131         1.427617         0.495930
 H        -0.705333         0.035426        -0.342493
 H         1.322656        -2.114407         0.893550
 H         1.807174        -2.310858        -0.961244
 H         4.877272        -2.182764         1.061617
 H         4.780310         0.396250         0.227251
 H         3.393162         1.725907        -1.695889
 H         3.784655        -0.044571        -2.230390
 H         2.568008         0.661479         1.843124
