19
Iteration:   104charge 0 multiplicity 1
 C        -0.152352         0.113753         0.073980
 C         1.425600        -0.163058        -0.082092
 C         2.026348        -1.577913         0.056834
 C         3.248713        -1.031426         0.664799
 O         4.115634        -1.793225         1.404857
 C         3.767701         0.064865        -0.115285
 C         3.237730         0.196170        -1.578575
 O         1.855371         0.530740        -1.235957
 C         2.588608         0.253020         0.897679
 H        -0.361890        -0.144626         1.149176
 H        -0.184180         1.237841        -0.220815
 H        -0.705116        -0.433720        -0.783690
 H         1.285369        -2.009568         0.752912
 H         2.200187        -2.259796        -0.739998
 H         4.524906        -2.543963         0.935114
 H         4.657671         0.543933         0.159492
 H         3.584907         1.120107        -2.151527
 H         3.326387        -0.787696        -2.097680
 H         2.570783         0.971239         1.663962
