19
Iteration:  4447
 C        -0.035757         0.303391         0.137432
 C         1.441767        -0.106962        -0.025722
 C         1.886233        -1.591663         0.042162
 C         3.247075        -1.119279         0.681754
 O         4.225897        -2.024404         1.411253
 C         3.743961         0.034815        -0.120499
 C         3.224590         0.292981        -1.495600
 O         1.778915         0.422718        -1.364685
 C         2.536976         0.345437         0.841253
 H        -0.339698         0.130576         1.267037
 H        -0.071380         1.246183        -0.472657
 H        -0.662176        -0.420538        -0.447377
 H         1.338307        -2.216870         0.781256
 H         2.040815        -2.124161        -0.934180
 H         5.078443        -1.642480         1.082419
 H         4.664529         0.430084         0.219275
 H         3.528881         1.224679        -1.829333
 H         3.325878        -0.426550        -2.247510
 H         2.620641         1.262838         1.480572
