19
Iteration:  3982charge 0 multiplicity 1
 C         0.116176         0.103888         0.394309
 C         1.485426        -0.117942        -0.115431
 C         1.994915        -1.690392        -0.151678
 C         3.117188        -1.094532         0.663961
 O         3.954783        -1.794169         1.540333
 C         3.764342        -0.002830        -0.163135
 C         3.202896         0.378145        -1.586007
 O         1.792478         0.530213        -1.368085
 C         2.646830         0.248817         0.816650
 H         0.126924        -0.002973         1.413991
 H        -0.152774         1.135180         0.142164
 H        -0.610502        -0.486161        -0.144390
 H         1.353639        -2.310393         0.510625
 H         2.458187        -2.050689        -1.158463
 H         4.596783        -2.307862         1.010544
 H         4.832120         0.334120         0.015859
 H         3.527449         1.387645        -1.953723
 H         3.385188        -0.523361        -2.224384
 H         2.724020         0.902145         1.700709
