19
Iteration:  4332
 C        -0.102536         0.175094         0.239366
 C         1.436064        -0.105458        -0.068539
 C         1.952281        -1.610284         0.035464
 C         3.282464        -1.108679         0.536040
 O         4.064669        -1.899098         1.411138
 C         3.805495         0.110960        -0.128549
 C         3.227394         0.150309        -1.570098
 O         1.848449         0.628816        -1.368889
 C         2.617987         0.223638         0.887657
 H        -0.492493        -0.441546         1.102407
 H        -0.302086         1.356668         0.146136
 H        -0.753948        -0.222259        -0.647272
 H         1.376961        -2.051886         0.911755
 H         1.956273        -2.325182        -0.768358
 H         4.752167        -1.265719         1.718110
 H         4.804936         0.381960         0.211707
 H         3.794755         0.817911        -2.113998
 H         3.168543        -0.905107        -1.928580
 H         2.597598         0.708999         1.878555
