19
Iteration:  4245
 C         0.184603         0.320862         0.294680
 C         1.452625        -0.214075        -0.105284
 C         1.830798        -1.746618         0.027771
 C         3.246898        -1.213689         0.462947
 O         4.015521        -1.767284         1.532076
 C         3.689697         0.094170        -0.130998
 C         3.236530         0.530740        -1.460364
 O         1.825246         0.285868        -1.482750
 C         2.594089         0.212934         0.797886
 H         0.124126         0.172725         1.387865
 H         0.141259         1.484590         0.459999
 H        -0.616414        -0.285931        -0.273087
 H         1.357635        -2.075911         0.906452
 H         1.712351        -2.285594        -0.852978
 H         4.922153        -2.003349         1.205777
 H         4.594818         0.449051         0.248465
 H         3.455637         1.540150        -1.741254
 H         3.638038        -0.071117        -2.250755
 H         2.529821         0.708180         1.840349
