19
Iteration:  3328charge 0 multiplicity 1
 C         0.019468         0.291608         0.198737
 C         1.416561        -0.194966        -0.083893
 C         1.878452        -1.643241         0.006818
 C         3.257679        -1.101426         0.619571
 O         4.163388        -1.817687         1.352509
 C         3.699286         0.153753        -0.034116
 C         3.266567         0.407673        -1.395459
 O         1.783885         0.263918        -1.468325
 C         2.587245         0.189632         0.929146
 H        -0.075601         0.303124         1.291990
 H        -0.226894         1.308378        -0.216032
 H        -0.762691        -0.327310        -0.347123
 H         1.312461        -2.175193         0.719320
 H         1.975932        -2.115315        -0.948298
 H         4.700943        -2.327293         0.727532
 H         4.659517         0.666405         0.180411
 H         3.489074         1.442264        -1.776993
 H         3.888387        -0.215536        -2.161776
 H         2.518251         0.807208         1.862873
