19
Iteration:  2211charge 0 multiplicity 1
 C        -0.024616         0.128185         0.295743
 C         1.452455        -0.077407        -0.048380
 C         2.011251        -1.657347        -0.003371
 C         3.276477        -1.072209         0.631393
 O         4.030710        -1.878901         1.497361
 C         3.759079         0.095006        -0.156933
 C         3.258256         0.350685        -1.582625
 O         1.788129         0.423446        -1.406381
 C         2.614149         0.335076         0.816364
 H        -0.327720        -0.436652         1.222734
 H        -0.471727         1.147201         0.431420
 H        -0.643738        -0.218410        -0.531129
 H         1.381523        -2.265246         0.679668
 H         2.024617        -2.222254        -0.879276
 H         4.340258        -2.629126         0.939465
 H         4.763432         0.412301         0.333646
 H         3.615843         1.342334        -2.015305
 H         3.476373        -0.351739        -2.349814
 H         2.716277         1.040178         1.657083
