19
Iteration:  1033charge 0 multiplicity 1
 C        -0.108096         0.161595         0.098184
 C         1.414035        -0.096900        -0.057719
 C         2.092455        -1.684357         0.021913
 C         3.281710        -1.029816         0.662784
 O         4.223280        -1.860618         1.281477
 C         3.673925         0.188236        -0.080513
 C         3.186921         0.106142        -1.450844
 O         1.829251         0.484645        -1.333562
 C         2.573166         0.382422         0.933055
 H        -0.685343        -0.390691         0.769742
 H        -0.241033         1.128493         0.528264
 H        -0.720980         0.052464        -0.803193
 H         1.504606        -2.227276         0.832857
 H         2.153890        -2.338609        -0.968784
 H         3.690797        -2.479706         1.799488
 H         4.629914         0.540427         0.188049
 H         3.554114         0.852733        -2.234043
 H         3.267278        -0.956890        -1.893003
 H         2.788067         1.265752         1.458651
