19
Iteration:  2714
 C        -0.001117         0.076594         0.202647
 C         1.430577        -0.089154        -0.089485
 C         1.992225        -1.622906        -0.026535
 C         3.246702        -1.153300         0.676984
 O         4.180409        -1.779281         1.488794
 C         3.749580        -0.007108        -0.175988
 C         3.156854         0.217193        -1.584460
 O         1.752469         0.600528        -1.307609
 C         2.653763         0.344674         0.781130
 H        -0.255003        -0.264508         1.211735
 H        -0.246262         1.116568         0.155917
 H        -0.594861        -0.700607        -0.358368
 H         1.274408        -2.089079         0.583378
 H         2.174387        -2.058695        -0.964536
 H         3.729502        -2.298682         2.194455
 H         4.718194         0.304442         0.066639
 H         3.601284         1.051406        -2.139558
 H         3.268827        -0.703391        -2.223131
 H         2.806123         1.072716         1.530780
