19
Iteration:  1140charge 0 multiplicity 1
 C        -0.002249         0.236405         0.270619
 C         1.469464        -0.151668        -0.077673
 C         1.993530        -1.711746        -0.082094
 C         3.269325        -1.086499         0.596775
 O         4.133518        -1.876532         1.406975
 C         3.722113         0.146185        -0.105778
 C         3.251118         0.368297        -1.487650
 O         1.759910         0.339709        -1.429224
 C         2.576841         0.336719         0.896487
 H        -0.012209         0.466727         1.294673
 H        -0.330713         0.990960        -0.431120
 H        -0.602142        -0.634929        -0.018647
 H         1.526440        -2.266447         0.670327
 H         2.043625        -2.307566        -0.929106
 H         3.557057        -2.236161         2.108100
 H         4.641106         0.635338         0.205773
 H         3.476486         1.323433        -1.812076
 H         3.578288        -0.300894        -2.253595
 H         2.610502         1.014254         1.754455
