19
Iteration:  3991
 C         0.053450         0.129224         0.297765
 C         1.500058        -0.103587        -0.141258
 C         2.034626        -1.659143        -0.153482
 C         3.179365        -1.149310         0.661958
 O         3.984876        -1.783295         1.505085
 C         3.796579         0.042135        -0.171097
 C         3.152369         0.257766        -1.474677
 O         1.762083         0.563508        -1.317411
 C         2.684236         0.288325         0.840202
 H        -0.063372        -0.000752         1.336035
 H        -0.250339         1.171836         0.274213
 H        -0.608021        -0.564440        -0.205277
 H         1.334187        -2.429024         0.335934
 H         2.266606        -2.229451        -1.122343
 H         4.431059        -2.482096         0.981750
 H         4.765595         0.367803         0.165098
 H         3.624739         1.171013        -2.064184
 H         3.128938        -0.508501        -2.253943
 H         2.747623         1.115407         1.611903
