19
Iteration:  4718charge 0 multiplicity 1
 C         0.115366         0.186925         0.482662
 C         1.479083        -0.130040        -0.037953
 C         1.920182        -1.684703        -0.131154
 C         3.119832        -1.187638         0.543906
 O         3.905832        -1.757590         1.593366
 C         3.789612         0.092128        -0.281417
 C         3.311115         0.493422        -1.631194
 O         1.791262         0.323333        -1.440943
 C         2.727013         0.183680         0.761931
 H         0.277409         0.126885         1.604014
 H         0.107134         1.271983         0.379728
 H        -0.566439        -0.361787        -0.048731
 H         1.183786        -2.256384         0.563477
 H         2.022941        -2.264958        -1.216995
 H         3.523661        -1.635599         2.491384
 H         4.849101         0.271948         0.120739
 H         3.353031         1.555668        -1.896287
 H         3.794677        -0.147804        -2.293214
 H         2.890185         0.688287         1.733406
