19
Iteration:  4955
 C         0.012498         0.322891         0.087482
 C         1.422501        -0.073251         0.013313
 C         1.829273        -1.631814         0.227462
 C         3.228734        -1.134120         0.587278
 O         4.221737        -1.849017         1.319545
 C         3.714821         0.068597        -0.154917
 C         3.273274         0.309941        -1.567000
 O         1.805094         0.285313        -1.375313
 C         2.665624         0.285976         0.890512
 H        -0.579868        -0.153730         0.870190
 H        -0.230248         1.343334         0.291190
 H        -0.452202         0.113902        -0.831837
 H         1.234162        -2.048343         1.061673
 H         1.645149        -2.257443        -0.750661
 H         3.721728        -2.065494         2.121072
 H         4.751640         0.197257         0.068038
 H         3.693643         1.235542        -1.947634
 H         3.521318        -0.470056        -2.237034
 H         2.655379         1.091017         1.600709
