19
Iteration:  4689
 C         0.162570         0.268439         0.382764
 C         1.437640        -0.162038        -0.206008
 C         1.961489        -1.672127        -0.083518
 C         3.213797        -1.157927         0.608912
 O         4.021762        -1.841380         1.547414
 C         3.764809        -0.019066        -0.192247
 C         3.231353         0.396636        -1.501543
 O         1.725758         0.399377        -1.454242
 C         2.580135         0.200342         0.776723
 H         0.153483        -0.212236         1.384621
 H         0.393653         1.363326         0.443837
 H        -0.829254         0.021815        -0.106079
 H         1.385283        -1.946017         0.736988
 H         2.088863        -2.317630        -0.941527
 H         4.123327        -1.326463         2.348515
 H         4.752379         0.368751         0.186294
 H         3.453962         1.524401        -1.635402
 H         3.766521         0.022320        -2.450236
 H         2.662482         1.058754         1.477956
