19
Iteration:  1458
 C         0.026378         0.097037         0.322890
 C         1.500051        -0.080683        -0.146171
 C         1.941057        -1.513423        -0.067185
 C         3.248765        -1.059730         0.661812
 O         4.078311        -1.836875         1.446338
 C         3.717755         0.035792        -0.130244
 C         3.216371         0.232881        -1.596554
 O         1.838419         0.457627        -1.380141
 C         2.564660         0.247171         0.858767
 H         0.122466        -0.273324         1.290406
 H        -0.277749         1.112606         0.161754
 H        -0.602459        -0.487701        -0.391743
 H         1.276335        -1.975549         0.735801
 H         2.060074        -2.247803        -0.934084
 H         3.956921        -1.774270         2.410909
 H         4.671566         0.412334         0.185587
 H         3.632965         1.033351        -2.264715
 H         3.372018        -0.719094        -2.066873
 H         2.682232         1.231734         1.337254
