19
Iteration:  2804charge 0 multiplicity 1
 C         0.007500         0.304390         0.074750
 C         1.452054        -0.135949        -0.013382
 C         1.857057        -1.655919         0.109100
 C         3.270656        -1.170853         0.608239
 O         4.254826        -1.790761         1.340713
 C         3.770525         0.042248        -0.138368
 C         3.145535         0.433037        -1.445017
 O         1.766085         0.283513        -1.398694
 C         2.626307         0.227969         0.832025
 H        -0.516173        -0.118555         0.983286
 H         0.004446         1.356458         0.284183
 H        -0.636778        -0.323008        -0.645108
 H         1.198421        -1.966487         0.914529
 H         1.924739        -2.267168        -0.734180
 H         3.902413        -2.208399         2.152460
 H         4.864398         0.393750         0.116805
 H         3.352187         1.514474        -1.368376
 H         3.584012        -0.114667        -2.324721
 H         2.580657         1.054317         1.578562
