19
Iteration:  4475
 C        -0.067281         0.247393         0.083402
 C         1.460181        -0.103338        -0.063423
 C         2.003891        -1.600265         0.067611
 C         3.223797        -1.061798         0.641301
 O         4.096873        -1.909814         1.348351
 C         3.763766         0.144538        -0.128123
 C         3.174073         0.129638        -1.519100
 O         1.807703         0.530096        -1.310307
 C         2.613730         0.220359         0.979059
 H        -0.448932        -0.053773         0.999558
 H         0.022135         1.331420        -0.061206
 H        -0.535983        -0.265775        -0.727065
 H         1.408258        -1.894861         0.958748
 H         2.138998        -2.294977        -0.780184
 H         4.941657        -1.822167         0.866363
 H         4.795249         0.495578         0.286174
 H         3.560062         0.794095        -2.419598
 H         3.016875        -0.896330        -2.050172
 H         2.699940         0.718185         1.962808
