19
Iteration:   375charge 0 multiplicity 1
 C         0.008584         0.104065         0.239066
 C         1.516778        -0.122476        -0.140723
 C         1.981133        -1.611102        -0.011322
 C         3.295418        -1.127831         0.589580
 O         4.048982        -1.789532         1.653996
 C         3.739984         0.103640        -0.145591
 C         3.203690         0.449902        -1.588613
 O         1.759386         0.372313        -1.502559
 C         2.608040         0.281070         0.853119
 H        -0.262818        -0.622517         1.023325
 H        -0.188968         1.120301         0.637132
 H        -0.597276        -0.060555        -0.580034
 H         1.539897        -2.156628         0.876428
 H         1.938326        -2.336051        -0.859425
 H         4.171701        -2.736071         1.395093
 H         4.795144         0.374614         0.199188
 H         3.482653         1.453376        -1.785466
 H         3.476288        -0.307345        -2.387600
 H         2.608043         0.777095         1.877151
