19
Iteration:  3742
 C         0.048873         0.181338         0.120868
 C         1.492923        -0.127756        -0.020917
 C         1.933495        -1.576686         0.104534
 C         3.241293        -1.039315         0.675416
 O         4.101527        -1.990739         1.259635
 C         3.767510         0.164333        -0.040076
 C         3.148344         0.313154        -1.564587
 O         1.799604         0.435132        -1.307570
 C         2.574867         0.275664         0.943265
 H        -0.432478        -0.598055         0.710192
 H        -0.189611         1.326606         0.119704
 H        -0.467957        -0.060398        -0.909514
 H         1.360793        -2.033896         0.839602
 H         1.934533        -2.206050        -0.763100
 H         4.923885        -1.798301         0.774008
 H         4.809650         0.369300         0.292875
 H         3.524904         1.060307        -2.244067
 H         3.364143        -0.566013        -2.127361
 H         2.406254         0.857376         1.827804
