19
Iteration:  4440
 C        -0.035583         0.267105         0.193598
 C         1.470296        -0.107092        -0.076757
 C         1.934594        -1.573040         0.066015
 C         3.209843        -1.111949         0.697578
 O         4.171531        -1.991460         1.398144
 C         3.751518        -0.006289        -0.106742
 C         3.242545         0.365977        -1.544489
 O         1.768924         0.361614        -1.386678
 C         2.587563         0.325640         0.851133
 H        -0.379112         0.353401         1.175969
 H        -0.236910         1.224152        -0.242860
 H        -0.769542        -0.347827        -0.354565
 H         1.142214        -2.161271         0.675511
 H         1.883448        -2.169478        -0.885153
 H         5.017930        -1.575501         1.136776
 H         4.686546         0.401154         0.263819
 H         3.575689         1.485204        -1.787815
 H         3.597477        -0.406705        -2.331775
 H         2.646620         1.088189         1.573742
