19
Iteration:   565
 C        -0.027110         0.152140         0.175114
 C         1.350581        -0.168784        -0.106250
 C         2.060792        -1.549121         0.026709
 C         3.291915        -1.061622         0.699367
 O         4.194811        -1.841895         1.341141
 C         3.720516         0.129508        -0.015693
 C         3.217675         0.129461        -1.467379
 O         1.780568         0.527868        -1.449598
 C         2.536123         0.344366         0.896581
 H        -0.350964        -0.279351         1.085867
 H        -0.271080         1.176380         0.161672
 H        -0.574745        -0.280088        -0.714730
 H         1.447362        -2.261352         0.735094
 H         2.051349        -2.111707        -0.950924
 H         3.894773        -2.751942         1.417021
 H         4.732010         0.578012         0.176929
 H         3.870962         0.817990        -2.071431
 H         3.344514        -0.996335        -1.893251
 H         2.588363         1.183955         1.654387
