19
Iteration:   154charge 0 multiplicity 1
 C        -0.022316         0.126856         0.259707
 C         1.417942        -0.178928        -0.087033
 C         1.997794        -1.639178         0.044295
 C         3.232802        -1.040505         0.591389
 O         3.971421        -1.861879         1.497603
 C         3.778932         0.095684        -0.124049
 C         3.270314         0.401728        -1.555344
 O         1.834375         0.390666        -1.436568
 C         2.593188         0.272484         0.843799
 H        -0.175549        -0.238134         1.245700
 H        -0.149644         1.181292         0.150210
 H        -0.623090        -0.365592        -0.403099
 H         1.547857        -2.251368         0.846320
 H         1.890944        -2.270633        -0.899140
 H         4.911496        -1.879538         1.189642
 H         4.805661         0.502980         0.072014
 H         3.561504         1.388811        -1.844125
 H         3.619514        -0.317415        -2.318033
 H         2.627656         1.079150         1.679178
