19
Iteration:  1627charge 0 multiplicity 1
 C         0.010298         0.014606         0.142353
 C         1.484616        -0.064507        -0.060836
 C         1.881107        -1.553992         0.034912
 C         3.212138        -1.046348         0.647790
 O         4.167363        -1.778875         1.465594
 C         3.792765         0.061915        -0.167515
 C         3.123569         0.097478        -1.598491
 O         1.804432         0.634810        -1.354485
 C         2.699403         0.276238         0.893622
 H        -0.252793        -0.306283         1.181143
 H        -0.428706         1.023572         0.100387
 H        -0.399859        -0.617672        -0.643595
 H         1.305320        -2.139637         0.827061
 H         2.040471        -2.091112        -0.915939
 H         3.795479        -2.428069         2.105535
 H         4.828849         0.293781        -0.058895
 H         3.517097         0.787034        -2.329771
 H         3.101529        -0.918375        -2.095760
 H         2.645668         1.045162         1.718017
