19
Iteration:  4219
 C         0.049567         0.319819         0.273633
 C         1.426823        -0.195273        -0.086954
 C         1.957189        -1.695599        -0.044391
 C         3.169565        -1.160460         0.686100
 O         4.099322        -1.753132         1.522080
 C         3.803669         0.002715        -0.177925
 C         3.211401         0.478507        -1.544691
 O         1.787910         0.328850        -1.445726
 C         2.631924         0.221956         0.833262
 H        -0.313077        -0.025920         1.319055
 H         0.219519         1.416559         0.591370
 H        -0.755537         0.131741        -0.474763
 H         1.298769        -2.332092         0.648181
 H         2.214808        -2.036395        -1.076151
 H         4.308995        -2.603662         1.060354
 H         4.813873         0.279571         0.281692
 H         3.379673         1.538037        -1.741261
 H         3.385975        -0.238020        -2.439293
 H         2.391349         0.746901         1.708259
