19
Iteration:  1787charge 0 multiplicity 1
 C         0.007377         0.011316         0.290997
 C         1.485465        -0.068000        -0.073745
 C         1.951251        -1.448128        -0.036441
 C         3.279974        -1.029300         0.705516
 O         4.090655        -1.864304         1.349790
 C         3.756551         0.128458        -0.121574
 C         3.248603         0.090674        -1.573580
 O         1.801441         0.451285        -1.393375
 C         2.596583         0.403950         0.892950
 H        -0.330164        -0.563809         1.271222
 H        -0.421921         1.142963         0.354296
 H        -0.358999        -0.507667        -0.660617
 H         1.308180        -1.907235         0.738149
 H         1.810431        -1.987250        -1.008452
 H         3.520326        -2.613638         1.640869
 H         4.632363         0.678460         0.195491
 H         3.733349         0.788039        -2.265160
 H         3.358894        -0.990720        -1.825489
 H         2.713031         1.260978         1.612083
