19
Iteration:   373
 C         0.031752         0.096784         0.259686
 C         1.515743        -0.109145        -0.142256
 C         1.978755        -1.618159        -0.009953
 C         3.273867        -1.111716         0.586072
 O         4.039800        -1.784808         1.647333
 C         3.742644         0.107456        -0.115617
 C         3.201595         0.448176        -1.581231
 O         1.756854         0.358500        -1.521936
 C         2.611133         0.260421         0.851532
 H        -0.277317        -0.646439         1.038221
 H        -0.108273         1.166515         0.653638
 H        -0.606723        -0.050201        -0.622242
 H         1.561098        -2.120494         0.795794
 H         1.965929        -2.306478        -0.841045
 H         4.210015        -2.725865         1.407865
 H         4.801682         0.372041         0.129321
 H         3.473693         1.481368        -1.778115
 H         3.496450        -0.272490        -2.426726
 H         2.610161         0.793672         1.824255
