19
Iteration:  2808charge 0 multiplicity 1
 C         0.007858         0.261138         0.058716
 C         1.476512        -0.154872        -0.008266
 C         1.834053        -1.625792         0.107698
 C         3.252773        -1.160498         0.614157
 O         4.260865        -1.802437         1.347063
 C         3.757715         0.091637        -0.123131
 C         3.119954         0.398990        -1.449617
 O         1.756572         0.308472        -1.384425
 C         2.672478         0.218246         0.819201
 H        -0.507390        -0.130076         0.957074
 H        -0.024708         1.390630         0.175911
 H        -0.524767        -0.218501        -0.666968
 H         1.168634        -1.901737         0.961147
 H         1.913901        -2.281003        -0.803584
 H         3.956919        -2.262232         2.144274
 H         4.730577         0.300617         0.164874
 H         3.464476         1.464109        -1.595564
 H         3.598936        -0.069062        -2.293682
 H         2.635698         1.008672         1.689020
