19
Iteration:  4385charge 0 multiplicity 1
 C         0.093197         0.272659         0.410342
 C         1.454502        -0.154497        -0.159544
 C         2.010376        -1.684976        -0.007546
 C         3.278601        -1.081703         0.595420
 O         3.856440        -1.965907         1.589383
 C         3.819972         0.086246        -0.235787
 C         3.172960         0.521716        -1.545848
 O         1.782722         0.261333        -1.504465
 C         2.641142         0.253376         0.783530
 H        -0.056659        -0.167040         1.342203
 H         0.044857         1.288440         0.664906
 H        -0.768838        -0.032532        -0.195985
 H         1.496495        -2.215230         0.880847
 H         2.133938        -2.112148        -1.009363
 H         4.782026        -1.657701         1.725611
 H         4.717069         0.539906         0.063276
 H         3.432205         1.642776        -1.608926
 H         3.708866         0.119505        -2.474234
 H         2.763248         1.046271         1.526487
