19
Iteration:  1987charge 0 multiplicity 1
 C         0.148707         0.075330         0.416177
 C         1.517822        -0.180252        -0.133315
 C         1.988605        -1.653045        -0.052326
 C         3.237293        -1.066153         0.593541
 O         3.881466        -1.753402         1.620723
 C         3.802936         0.061795        -0.244366
 C         3.146725         0.332968        -1.599384
 O         1.748116         0.460555        -1.378744
 C         2.740157         0.337112         0.756612
 H        -0.015847        -0.345874         1.416901
 H        -0.054666         1.123200         0.285486
 H        -0.730994        -0.327217        -0.173943
 H         1.382138        -2.209048         0.620100
 H         2.071234        -2.230430        -0.962175
 H         4.135612        -2.646379         1.314812
 H         4.880480         0.191775         0.016925
 H         3.586875         1.331323        -1.966296
 H         3.430873        -0.455320        -2.322660
 H         2.390973         1.119944         1.427450
