19
Iteration:   608
 C        -0.001536         0.058751         0.185444
 C         1.503425        -0.088610        -0.067614
 C         1.937978        -1.608606         0.035273
 C         3.239366        -1.087317         0.627554
 O         4.101950        -1.855112         1.410333
 C         3.753227         0.069529        -0.145059
 C         3.229063         0.456316        -1.490018
 O         1.774133         0.365934        -1.507001
 C         2.642860         0.266761         0.914191
 H        -0.235451         0.299262         1.209726
 H        -0.245023         0.993030        -0.318843
 H        -0.812547        -0.665713        -0.225898
 H         1.391780        -2.090102         0.909828
 H         1.897071        -2.303942        -0.795499
 H         3.788501        -1.947322         2.315463
 H         4.733349         0.549684         0.106781
 H         3.609370         1.477833        -1.708463
 H         3.617112        -0.336090        -2.215284
 H         2.730758         0.796266         1.907358
