19
Iteration:  1214
 C        -0.075824         0.176522         0.166883
 C         1.438646        -0.143748        -0.067142
 C         1.988342        -1.656797         0.030375
 C         3.289838        -1.066506         0.654591
 O         4.152900        -1.849244         1.441890
 C         3.756673         0.130236        -0.209103
 C         3.241075         0.281911        -1.551982
 O         1.784701         0.416689        -1.303232
 C         2.640752         0.282046         0.843558
 H        -0.559778        -0.476895         0.843561
 H        -0.244457         1.264044         0.474272
 H        -0.548400         0.146807        -0.828529
 H         1.351860        -2.174607         0.838046
 H         2.009718        -2.374428        -0.914652
 H         3.558585        -2.297252         2.092781
 H         4.732401         0.563784        -0.019749
 H         3.542327         1.314037        -1.895468
 H         3.297607        -0.378778        -2.477994
 H         2.655032         1.040026         1.632411
