19
Iteration:  1328
 C        -0.101626         0.110587         0.031993
 C         1.424021        -0.057295        -0.038144
 C         2.041113        -1.524122         0.150886
 C         3.249135        -1.021119         0.750133
 O         4.187606        -1.896124         1.257374
 C         3.709365         0.081921        -0.151216
 C         3.178012         0.184498        -1.508789
 O         1.835198         0.458353        -1.334332
 C         2.642112         0.356821         0.902586
 H        -0.606408         0.128839         1.087009
 H        -0.353561         1.168888        -0.324583
 H        -0.702555        -0.708852        -0.556385
 H         1.379189        -2.043687         0.874327
 H         2.131885        -2.163430        -0.744486
 H         3.738413        -2.594854         1.791952
 H         4.663804         0.479451         0.077019
 H         3.808227         0.919806        -1.987596
 H         3.200592        -0.833109        -2.098392
 H         2.819774         0.835664         1.827816
