19
Iteration:  3008
 C         0.028648         0.143357         0.164675
 C         1.459625        -0.156565        -0.009256
 C         1.964345        -1.638786        -0.016939
 C         3.240048        -1.077219         0.675242
 O         4.136657        -1.944971         1.344179
 C         3.743024         0.096249        -0.117176
 C         3.227955         0.303472        -1.570442
 O         1.782428         0.484050        -1.341752
 C         2.549953         0.321574         0.889535
 H        -0.169162        -0.004417         1.239475
 H        -0.240398         1.258593        -0.033129
 H        -0.649568        -0.473784        -0.506164
 H         1.283318        -2.277204         0.544595
 H         2.009040        -2.101002        -1.058609
 H         4.449331        -1.503163         2.149033
 H         4.735306         0.471027         0.241198
 H         3.511085         1.293558        -1.969153
 H         3.422094        -0.630849        -2.112404
 H         2.523082         1.182264         1.643232
