19
Iteration:  4749
 C         0.073440         0.177598         0.276694
 C         1.492709        -0.053782        -0.067519
 C         2.024200        -1.572877         0.035117
 C         3.226114        -1.128381         0.669471
 O         4.057448        -1.966509         1.484519
 C         3.792670         0.026417        -0.192496
 C         3.185136         0.279012        -1.552099
 O         1.733233         0.500504        -1.428617
 C         2.630496         0.376329         0.730122
 H        -0.074178        -0.083227         1.411302
 H        -0.228723         1.230544         0.092395
 H        -0.632721        -0.447766        -0.330631
 H         1.392407        -2.154749         0.775915
 H         2.035700        -2.294809        -0.815027
 H         3.405925        -2.434902         2.037866
 H         4.812554         0.453505         0.077067
 H         3.544375         1.197799        -1.965513
 H         3.440802        -0.596029        -2.170934
 H         2.699904         1.087966         1.563239
