19
Iteration:  1378charge 0 multiplicity 1
 C         0.002656         0.331656         0.203765
 C         1.410655        -0.120666        -0.157150
 C         1.936966        -1.707844         0.095380
 C         3.232597        -1.083359         0.666832
 O         4.144373        -1.781075         1.305106
 C         3.757490         0.112859        -0.107245
 C         3.291976         0.352563        -1.525583
 O         1.800145         0.218920        -1.435751
 C         2.570562         0.249144         0.930096
 H        -0.276877        -0.112252         1.085567
 H         0.027687         1.369928         0.480269
 H        -0.822711         0.077807        -0.360089
 H         1.381551        -2.205788         0.886761
 H         2.057966        -2.378173        -0.762321
 H         3.777385        -2.181639         2.105739
 H         4.825392         0.308916         0.206708
 H         3.508856         1.421909        -1.794339
 H         3.618291        -0.267715        -2.323915
 H         2.500343         1.093601         1.648094
