19
Iteration:  2938charge 0 multiplicity 1
 C         0.080163         0.188886         0.173113
 C         1.480425        -0.194218        -0.160581
 C         1.925851        -1.623581         0.046985
 C         3.230429        -1.123643         0.654158
 O         4.134026        -1.887032         1.393239
 C         3.764708         0.055623        -0.108036
 C         3.141972         0.496357        -1.551473
 O         1.718505         0.343912        -1.449869
 C         2.668450         0.273667         0.959282
 H        -0.237702        -0.264646         1.179128
 H         0.015883         1.344516         0.363421
 H        -0.623260         0.019604        -0.700644
 H         1.430817        -2.233182         0.788245
 H         1.948167        -2.199950        -0.810265
 H         4.147694        -1.607527         2.324427
 H         4.833279         0.145566         0.037110
 H         3.285822         1.524002        -1.530684
 H         3.515175        -0.067488        -2.401993
 H         2.680461         0.893594         1.852877
