19
Iteration:  4846
 C         0.153085         0.315288         0.367165
 C         1.479119        -0.148947        -0.167932
 C         1.892913        -1.674707         0.067404
 C         3.260705        -1.133043         0.616364
 O         4.011214        -1.856878         1.497106
 C         3.804298         0.091513        -0.198775
 C         3.156032         0.483179        -1.496677
 O         1.769322         0.198458        -1.489243
 C         2.659700         0.304955         0.750557
 H         0.006398        -0.059841         1.416699
 H         0.246212         1.377234         0.170608
 H        -0.681169        -0.052426        -0.264381
 H         1.359311        -2.271218         0.811461
 H         1.710201        -2.240995        -0.870444
 H         3.377161        -2.254289         2.125194
 H         4.902069         0.238691         0.098936
 H         3.416321         1.549365        -1.538063
 H         3.634583        -0.009620        -2.440119
 H         2.811366         1.139894         1.465789
