19
Iteration:  4403
 C         0.139734         0.205039         0.393062
 C         1.510716        -0.177844        -0.075712
 C         1.865942        -1.640590         0.043410
 C         3.278925        -1.185583         0.511968
 O         3.829975        -1.895192         1.487562
 C         3.786412         0.154040        -0.161512
 C         3.263609         0.569110        -1.558955
 O         1.828594         0.204644        -1.427928
 C         2.653822         0.314111         0.708335
 H         0.082127        -0.216022         1.516548
 H         0.132460         1.314751         0.150356
 H        -0.609733        -0.321312        -0.206546
 H         1.397547        -1.922839         0.999389
 H         1.679793        -2.297539        -0.855709
 H         4.768394        -1.706795         1.716377
 H         4.728079         0.566231         0.217659
 H         3.323949         1.665348        -1.756719
 H         3.638816         0.031871        -2.414123
 H         2.465188         0.812515         1.710282
