19
Iteration:  3709
 C        -0.155806         0.222117         0.058761
 C         1.387418        -0.101630         0.002586
 C         1.910508        -1.581914         0.146071
 C         3.281275        -1.118777         0.638645
 O         4.198752        -1.968307         1.276043
 C         3.810298         0.081196        -0.053357
 C         3.248680         0.369030        -1.487401
 O         1.815562         0.438323        -1.357976
 C         2.591397         0.248596         0.914305
 H        -0.691678        -0.022157         0.999381
 H        -0.419832         1.344583        -0.014496
 H        -0.445116        -0.495108        -0.789197
 H         1.481436        -2.073902         0.940642
 H         1.840617        -2.215003        -0.724669
 H         4.952441        -2.008202         0.652679
 H         4.835612         0.412924         0.317895
 H         3.565941         1.330058        -1.893832
 H         3.289570        -0.425893        -2.162091
 H         2.619729         0.956169         1.720334
