19
Iteration:  2292charge 0 multiplicity 1
 C        -0.048592         0.301045         0.325573
 C         1.425501        -0.058923        -0.134339
 C         1.942622        -1.695424         0.017931
 C         3.308393        -1.180452         0.588587
 O         4.110066        -1.826372         1.535533
 C         3.767816         0.075413        -0.125792
 C         3.218193         0.383081        -1.535672
 O         1.745296         0.346178        -1.486476
 C         2.651979         0.209426         0.830340
 H        -0.243723         0.016987         1.359664
 H        -0.202061         1.368245         0.199544
 H        -0.858075        -0.302211        -0.304939
 H         1.293335        -2.199607         0.705926
 H         1.992649        -2.055282        -1.033530
 H         5.025111        -1.883520         1.188635
 H         4.655077         0.486642         0.076691
 H         3.546095         1.391104        -1.793622
 H         3.456192        -0.427475        -2.189147
 H         2.597649         0.624607         1.772694
