19
Iteration:  2095
 C        -0.203265         0.174013         0.085320
 C         1.395706        -0.027756        -0.014316
 C         1.975769        -1.562559         0.148837
 C         3.294860        -1.064330         0.650593
 O         4.195751        -1.920704         1.354569
 C         3.847745         0.134839        -0.137291
 C         3.220422         0.215846        -1.477514
 O         1.819275         0.450177        -1.324279
 C         2.590282         0.269405         0.838311
 H        -0.506106        -0.092118         1.114353
 H        -0.579566         1.196573         0.085655
 H        -0.711033        -0.479728        -0.732675
 H         1.341415        -1.982793         0.974005
 H         1.781098        -2.280688        -0.796145
 H         4.352254        -2.556394         0.615782
 H         4.948469         0.332906         0.122179
 H         3.724191         0.989726        -1.986840
 H         3.492966        -0.668739        -2.185598
 H         2.604760         1.152607         1.552054
