19
Iteration:  4284charge 0 multiplicity 1
 C         0.018981         0.196734         0.184293
 C         1.493746        -0.088502        -0.020048
 C         1.968552        -1.610718         0.094132
 C         3.244996        -1.093939         0.658108
 O         3.978389        -2.017388         1.373948
 C         3.738353         0.046576        -0.129895
 C         3.173417         0.420347        -1.536761
 O         1.798575         0.326136        -1.408169
 C         2.688389         0.420854         0.835492
 H        -0.246187         0.039395         1.242501
 H        -0.244704         1.176519        -0.152007
 H        -0.728552        -0.393577        -0.299011
 H         1.454932        -2.387595         0.794954
 H         2.100716        -2.059346        -0.964873
 H         4.910584        -1.777907         1.408515
 H         4.746650         0.378576         0.157458
 H         3.536490         1.519335        -1.664530
 H         3.543744        -0.385254        -2.235508
 H         2.711843         1.194854         1.601952
