19
Iteration:   581
 C        -0.066833         0.093817         0.133761
 C         1.516926        -0.105655        -0.041450
 C         1.993351        -1.654042        -0.027209
 C         3.253813        -1.026436         0.672076
 O         4.173884        -1.918195         1.331522
 C         3.726656         0.188632        -0.061212
 C         3.204758         0.191589        -1.496461
 O         1.837182         0.437112        -1.308502
 C         2.549985         0.464389         0.834828
 H        -0.425008        -0.008087         1.207136
 H        -0.215642         1.186209        -0.180570
 H        -0.738428        -0.494304        -0.449019
 H         1.411968        -2.232956         0.644803
 H         2.243517        -2.199635        -0.959046
 H         3.612008        -2.558929         1.786663
 H         4.655166         0.609349         0.232052
 H         3.550415         0.960224        -2.187629
 H         3.343040        -0.761748        -1.900785
 H         2.393410         1.125834         1.633158
