19
Iteration:   620charge 0 multiplicity 1
 C        -0.013491         0.159707         0.241570
 C         1.429061        -0.146072        -0.112345
 C         1.897636        -1.690159         0.042696
 C         3.263978        -1.208304         0.555497
 O         4.140650        -1.817666         1.495991
 C         3.766800         0.041573        -0.134745
 C         3.225304         0.543675        -1.484153
 O         1.815049         0.353182        -1.459934
 C         2.656542         0.289847         0.777867
 H        -0.223638         0.201684         1.296594
 H        -0.377547         1.025235        -0.285175
 H        -0.502034        -0.782728        -0.181463
 H         1.142198        -2.028178         0.842599
 H         1.882004        -2.384716        -0.825594
 H         3.664059        -1.638373         2.331770
 H         4.803395         0.230612         0.174592
 H         3.401461         1.660772        -1.495219
 H         3.769491         0.171450        -2.439857
 H         2.587794         0.837433         1.726174
