19
Iteration:  4856
 C         0.170799         0.273688         0.407421
 C         1.472186        -0.166756        -0.096593
 C         1.894188        -1.601614         0.012242
 C         3.189601        -1.137175         0.560495
 O         3.966855        -1.810618         1.572274
 C         3.789493         0.045346        -0.270185
 C         3.251601         0.499563        -1.580958
 O         1.797154         0.189953        -1.460733
 C         2.706057         0.267835         0.755674
 H         0.069163         0.034362         1.472455
 H        -0.020305         1.332415         0.387319
 H        -0.697904        -0.251363        -0.078368
 H         1.280757        -2.060643         0.797502
 H         1.981376        -2.171020        -1.006652
 H         3.273133        -2.284968         2.052173
 H         4.821094         0.476581        -0.028356
 H         3.289763         1.604891        -1.652715
 H         3.643729         0.065936        -2.561442
 H         2.592831         0.754679         1.735562
