19
Iteration:  3923charge 0 multiplicity 1
 C         0.104998         0.275904         0.235317
 C         1.482743        -0.167207        -0.027120
 C         1.891586        -1.686787         0.016260
 C         3.245748        -1.158118         0.586154
 O         4.025320        -1.863187         1.452577
 C         3.720260         0.122179        -0.176487
 C         3.146356         0.544314        -1.520356
 O         1.817078         0.250353        -1.394205
 C         2.639929         0.262927         0.900781
 H        -0.362109        -0.156222         1.173450
 H         0.186497         1.354402         0.415465
 H        -0.483126        -0.002204        -0.639521
 H         1.355625        -2.466914         0.643485
 H         1.926054        -2.215985        -0.923911
 H         4.635993        -2.460296         0.982598
 H         4.778510         0.324624        -0.017411
 H         3.389112         1.681234        -1.676553
 H         3.748988         0.103436        -2.309954
 H         2.701114         1.067624         1.615406
