19
Iteration:   182charge 0 multiplicity 1
 C         0.156178         0.242023         0.325057
 C         1.466677        -0.196079        -0.183517
 C         1.980805        -1.738237        -0.099550
 C         3.217770        -1.171553         0.589951
 O         3.969399        -1.780366         1.668493
 C         3.779888         0.089113        -0.177657
 C         3.189586         0.564804        -1.542555
 O         1.776854         0.302797        -1.440254
 C         2.561907         0.171679         0.790513
 H        -0.063469        -0.274391         1.325151
 H         0.271269         1.362791         0.428639
 H        -0.773966        -0.113409        -0.383383
 H         1.387474        -2.325937         0.648594
 H         1.839670        -2.416864        -0.912783
 H         4.857532        -1.359682         1.548836
 H         4.796732         0.395100         0.120863
 H         3.412102         1.692806        -1.716147
 H         3.688489         0.092462        -2.449292
 H         2.542859         0.787821         1.677672
