19
Iteration:  2278
 C        -0.075975         0.300976         0.170756
 C         1.397138        -0.146200        -0.092670
 C         1.912785        -1.672234         0.005871
 C         3.233302        -1.148268         0.647776
 O         4.221210        -1.851197         1.454494
 C         3.773166         0.048322        -0.131765
 C         3.214238         0.314809        -1.509585
 O         1.756162         0.420764        -1.347768
 C         2.617087         0.254256         0.860731
 H        -0.248847         0.156032         1.249877
 H        -0.231220         1.376588        -0.053220
 H        -0.847574        -0.336100        -0.467623
 H         1.445252        -2.186674         0.916602
 H         1.910456        -2.420970        -0.733349
 H         4.954153        -2.009624         0.843494
 H         4.755593         0.457043         0.277564
 H         3.556105         1.331037        -1.968704
 H         3.569742        -0.331612        -2.329816
 H         2.775649         1.177017         1.516573
