19
Iteration:   875charge 0 multiplicity 1
 C        -0.074233         0.109435        -0.020387
 C         1.425207        -0.079132        -0.083372
 C         1.920190        -1.648280         0.107540
 C         3.250718        -1.064583         0.672638
 O         4.259608        -1.836161         1.349334
 C         3.712620         0.081171        -0.182123
 C         3.130253         0.159800        -1.528993
 O         1.801074         0.586861        -1.242728
 C         2.650516         0.292010         0.930530
 H        -0.516366        -0.604014         0.726499
 H        -0.228214         1.130788         0.378594
 H        -0.339413        -0.142912        -1.038272
 H         1.385703        -2.312965         0.819131
 H         2.187548        -2.092289        -0.843394
 H         4.102490        -2.064187         2.274037
 H         4.654888         0.476817         0.055526
 H         3.648299         0.958105        -2.084167
 H         3.187086        -0.855314        -1.972125
 H         2.907783         1.049883         1.596184
