19
Iteration:  3180charge 0 multiplicity 1
 C         0.020359         0.167629         0.191473
 C         1.465177        -0.197113        -0.069500
 C         1.938461        -1.652431         0.059160
 C         3.191498        -1.078560         0.569053
 O         4.040058        -1.859269         1.347810
 C         3.749209         0.118398        -0.098436
 C         3.240167         0.481179        -1.419012
 O         1.818827         0.308670        -1.395944
 C         2.643293         0.342164         0.900484
 H        -0.254355        -0.013327         1.229790
 H        -0.134248         1.241244        -0.146879
 H        -0.586350        -0.573937        -0.237970
 H         1.386660        -2.210949         0.871140
 H         1.924469        -2.262623        -0.875285
 H         4.494617        -2.509643         0.765112
 H         4.779448         0.396760         0.079336
 H         3.391976         1.572451        -1.790662
 H         3.712707        -0.133356        -2.272642
 H         2.702899         0.877563         1.917567
