19
Iteration:   791
 C         0.105346         0.288275         0.462865
 C         1.476975        -0.178416        -0.165305
 C         1.997556        -1.729183        -0.106628
 C         3.173521        -1.129789         0.626337
 O         4.059381        -1.776951         1.486340
 C         3.765024         0.141887        -0.096835
 C         3.254521         0.509461        -1.543401
 O         1.781170         0.216794        -1.534822
 C         2.556770         0.225272         0.770257
 H         0.166332         0.103388         1.511732
 H        -0.274532         1.241610         0.225143
 H        -0.727754        -0.390881         0.220267
 H         1.414148        -2.284135         0.648468
 H         2.203404        -2.350694        -1.062121
 H         3.665131        -2.247992         2.261181
 H         4.580459         0.634047         0.370214
 H         3.435658         1.597661        -1.608421
 H         3.812616        -0.101901        -2.296976
 H         2.461634         0.975392         1.491159
