19
Iteration:  1982charge 0 multiplicity 1
 C         0.073544         0.074821         0.366008
 C         1.524409        -0.133572        -0.098932
 C         2.022491        -1.653357        -0.029075
 C         3.234185        -1.075239         0.616711
 O         3.930377        -1.770691         1.635399
 C         3.816294         0.040031        -0.261259
 C         3.149701         0.324385        -1.588384
 O         1.736385         0.508793        -1.394923
 C         2.716911         0.307198         0.733341
 H         0.064093        -0.284908         1.432138
 H        -0.045591         1.212005         0.321228
 H        -0.757104        -0.361036        -0.163465
 H         1.419607        -2.362600         0.656691
 H         2.119643        -2.289779        -0.986774
 H         3.984446        -2.673681         1.251811
 H         4.773640         0.423854         0.065154
 H         3.621234         1.134921        -2.096800
 H         3.347193        -0.487347        -2.367935
 H         2.492128         1.029163         1.550875
