19
Iteration:  4835charge 0 multiplicity 1
 C         0.115830         0.385145         0.249861
 C         1.491384        -0.188676        -0.080678
 C         1.908510        -1.706064         0.099862
 C         3.227825        -1.118147         0.633178
 O         4.098064        -1.910022         1.409983
 C         3.763434         0.013277        -0.112770
 C         3.180668         0.464708        -1.517241
 O         1.749288         0.243766        -1.517636
 C         2.649845         0.338483         0.800637
 H        -0.104968         0.139119         1.329241
 H         0.090554         1.466593         0.390504
 H        -0.720052         0.068352        -0.425341
 H         1.390786        -2.087912         0.977292
 H         2.037234        -2.401113        -0.730607
 H         3.636428        -2.178065         2.240922
 H         4.780484         0.484706         0.140565
 H         3.271921         1.537138        -1.716474
 H         3.605775        -0.161811        -2.405000
 H         2.548244         1.264140         1.402630
