19
Iteration:  4295charge 0 multiplicity 1
 C         0.059354         0.132076         0.173396
 C         1.500166        -0.080601         0.005514
 C         1.972117        -1.516823         0.081021
 C         3.241421        -1.106584         0.691028
 O         4.007772        -2.038248         1.327297
 C         3.761642         0.046315        -0.102940
 C         3.201589         0.288442        -1.539408
 O         1.761786         0.406208        -1.340806
 C         2.597169         0.422960         0.843505
 H        -0.414557         0.134447         1.136618
 H        -0.053874         1.123157        -0.172662
 H        -0.236372        -0.556387        -0.575911
 H         1.277485        -2.146713         0.776667
 H         2.023740        -1.985129        -0.972680
 H         4.879471        -1.646941         1.488980
 H         4.781381         0.381419         0.079096
 H         3.479971         1.323167        -2.013773
 H         3.461996        -0.340111        -2.443623
 H         2.620155         1.336150         1.462057
