19
Iteration:    61
 C         0.072390         0.197323         0.307125
 C         1.501347        -0.155840        -0.186124
 C         2.018271        -1.623114        -0.064220
 C         3.204267        -1.100703         0.648321
 O         3.964948        -1.747026         1.608358
 C         3.773154         0.032051        -0.164476
 C         3.196333         0.449025        -1.556367
 O         1.770480         0.307984        -1.445994
 C         2.631689         0.200586         0.837090
 H        -0.074116        -0.342215         1.292262
 H        -0.041846         1.342779         0.375216
 H        -0.795385        -0.058668        -0.422822
 H         1.446663        -2.360176         0.536078
 H         2.071877        -2.239310        -0.956939
 H         4.716138        -2.214416         1.232297
 H         4.743753         0.376660         0.112355
 H         3.323070         1.574780        -1.488824
 H         3.498074        -0.061762        -2.502700
 H         2.710365         0.763713         1.737583
