19
Iteration:  1763
 C        -0.078826         0.172851         0.180029
 C         1.435154        -0.137138        -0.090604
 C         1.992587        -1.607520         0.162888
 C         3.296013        -1.078852         0.638960
 O         4.111868        -1.906944         1.369921
 C         3.759732         0.144597        -0.162830
 C         3.240539         0.328601        -1.556367
 O         1.786469         0.346201        -1.411805
 C         2.664162         0.410422         0.860467
 H        -0.358130        -0.265003         1.196205
 H        -0.391293         1.327379         0.306317
 H        -0.685536        -0.384383        -0.633897
 H         1.411922        -2.098982         1.006452
 H         1.951243        -2.246966        -0.784228
 H         3.479923        -2.412903         1.917854
 H         4.775327         0.412663        -0.060357
 H         3.518025         1.280139        -1.936907
 H         3.655949        -0.544370        -2.171425
 H         2.704917         0.861604         1.799985
