19
Iteration:  1346charge 0 multiplicity 1
 C        -0.024591         0.176361         0.064140
 C         1.419656        -0.080708        -0.072073
 C         1.852095        -1.569937         0.107454
 C         3.278731        -1.102993         0.674766
 O         4.282730        -1.874692         1.226983
 C         3.756744         0.171949        -0.010071
 C         3.252507         0.139906        -1.494570
 O         1.777405         0.403300        -1.366296
 C         2.580266         0.388261         0.972398
 H        -0.342550         0.002169         1.025032
 H        -0.362904         1.130138        -0.195494
 H        -0.540109        -0.338800        -0.668349
 H         1.224279        -2.069221         0.909288
 H         1.770073        -2.291884        -0.787227
 H         3.852050        -2.579326         1.775276
 H         4.827975         0.467665         0.265636
 H         3.489023         0.922668        -2.219165
 H         3.418356        -0.789966        -1.910935
 H         2.469030         1.369684         1.496032
