19
Iteration:  4398
 C         0.119609         0.228903         0.415124
 C         1.496820        -0.189347        -0.081211
 C         1.908755        -1.597417         0.027008
 C         3.293810        -1.175374         0.522395
 O         3.827989        -1.911515         1.519945
 C         3.781799         0.139593        -0.179828
 C         3.260061         0.565778        -1.554108
 O         1.827959         0.213400        -1.445463
 C         2.663780         0.293142         0.703006
 H         0.159096        -0.247426         1.318995
 H         0.095071         1.303961         0.246232
 H        -0.716898        -0.189250        -0.186882
 H         1.366866        -2.204427         0.810896
 H         1.799721        -2.381241        -0.698237
 H         4.736927        -1.741800         1.770701
 H         4.693877         0.670086         0.255886
 H         3.248719         1.665867        -1.624722
 H         3.447223        -0.003044        -2.509957
 H         2.514089         0.851954         1.556722
