19
Iteration:  4408charge 0 multiplicity 1
 C         0.160431         0.186375         0.378673
 C         1.514284        -0.170292        -0.094312
 C         1.850724        -1.675973         0.064757
 C         3.244035        -1.144937         0.481352
 O         3.850955        -1.903260         1.482628
 C         3.800508         0.157828        -0.161872
 C         3.245399         0.554589        -1.546462
 O         1.828340         0.211508        -1.435562
 C         2.636306         0.320628         0.767830
 H        -0.030891         0.064154         1.384094
 H         0.009808         1.240890         0.263719
 H        -0.564350        -0.398186        -0.212092
 H         1.400316        -1.893211         1.069050
 H         1.635646        -2.220160        -0.854505
 H         4.769721        -1.636023         1.596890
 H         4.817759         0.438652         0.153119
 H         3.413586         1.681740        -1.798761
 H         3.825802         0.003914        -2.380928
 H         2.565912         0.783495         1.706423
