19
Iteration:  4267charge 0 multiplicity 1
 C         0.002801         0.274425         0.305677
 C         1.400651        -0.165881        -0.160368
 C         1.922484        -1.645187         0.049800
 C         3.241627        -1.112985         0.620321
 O         3.991402        -1.954082         1.469315
 C         3.825393         0.153613        -0.157814
 C         3.287942         0.494758        -1.542498
 O         1.793616         0.270215        -1.457238
 C         2.657406         0.210648         0.872551
 H        -0.233700         0.280822         1.387682
 H        -0.238067         1.418864         0.118161
 H        -0.738030        -0.421905        -0.274989
 H         1.373737        -1.904708         0.916664
 H         1.910475        -2.315237        -0.750447
 H         4.920657        -1.771052         1.314759
 H         4.827273         0.492492        -0.001817
 H         3.314862         1.533771        -1.771487
 H         3.666441        -0.030623        -2.404681
 H         2.712570         0.882012         1.784360
