19
Iteration:   416
 C         0.032496         0.057662        -0.008915
 C         1.468935        -0.088844        -0.032402
 C         2.029973        -1.631278         0.038639
 C         3.229959        -1.054144         0.662593
 O         4.141984        -1.774648         1.456839
 C         3.699211         0.025467        -0.103366
 C         3.132260         0.242883        -1.544893
 O         1.763193         0.558958        -1.312055
 C         2.640031         0.322040         0.955412
 H        -0.314325        -0.216835         1.049014
 H        -0.303692         1.111752        -0.367827
 H        -0.412194        -0.749102        -0.648124
 H         1.290296        -2.046381         0.567336
 H         2.109596        -2.143315        -0.890974
 H         4.301228        -2.668694         1.100802
 H         4.778553         0.316396        -0.049491
 H         3.604520         0.998118        -2.204956
 H         3.231278        -0.769271        -2.023485
 H         2.580043         0.899315         1.924875
