19
Iteration:  1120
 C         0.093475         0.239204         0.328600
 C         1.490783        -0.238129        -0.151879
 C         1.973317        -1.643037        -0.012626
 C         3.234099        -1.174025         0.640010
 O         4.057686        -1.782532         1.544400
 C         3.772355         0.148053        -0.146591
 C         3.145696         0.577381        -1.575628
 O         1.780593         0.273231        -1.453726
 C         2.626683         0.159040         0.797338
 H         0.297008         0.430509         1.398605
 H        -0.057172         1.153393        -0.243115
 H        -0.731383        -0.518552         0.114184
 H         1.309190        -2.313647         0.519864
 H         2.121476        -1.975692        -1.072435
 H         3.565654        -2.462878         2.007443
 H         4.829651         0.329741         0.149755
 H         3.217246         1.649523        -1.831515
 H         3.720785        -0.003517        -2.371700
 H         2.420917         0.783640         1.691754
