19
Iteration:  4811
 C        -0.007601         0.389287         0.098670
 C         1.437706        -0.128755        -0.054487
 C         1.802457        -1.640756         0.172846
 C         3.236327        -1.078417         0.651314
 O         4.258859        -1.885864         1.261953
 C         3.706078         0.093272        -0.089086
 C         3.228180         0.277987        -1.524591
 O         1.837360         0.301399        -1.381669
 C         2.610687         0.247419         0.910900
 H        -0.458249         0.137496         1.006224
 H        -0.008113         1.463403         0.265266
 H        -0.657162         0.128737        -0.845771
 H         1.309264        -2.101638         1.026834
 H         1.781690        -2.138716        -0.902103
 H         4.075609        -2.176620         2.168498
 H         4.766020         0.316943         0.052301
 H         3.493490         1.230072        -2.058168
 H         3.452803        -0.611613        -2.186193
 H         2.687471         0.926631         1.763448
