19
Iteration:  4517
 C         0.067345         0.171236         0.371767
 C         1.483985        -0.107890        -0.122006
 C         1.909953        -1.595490        -0.028885
 C         3.210626        -1.115974         0.699359
 O         4.007918        -1.886576         1.597157
 C         3.790901        -0.013128        -0.198982
 C         3.240010         0.443334        -1.589925
 O         1.766425         0.401431        -1.471509
 C         2.644403         0.298452         0.792642
 H        -0.166664        -0.554061         1.072177
 H        -0.138676         1.203886         0.570860
 H        -0.687314         0.019854        -0.448967
 H         1.220106        -2.297502         0.667984
 H         2.105634        -2.214802        -0.988011
 H         4.578217        -2.446083         1.014087
 H         4.858724         0.376429         0.001283
 H         3.505955         1.579672        -1.758151
 H         3.625499        -0.215309        -2.405607
 H         2.677912         1.093373         1.548829
