19
Iteration:  4571
 C         0.040681         0.289042         0.351636
 C         1.472995        -0.168648        -0.091307
 C         1.885384        -1.667950        -0.120307
 C         3.250792        -1.186208         0.529425
 O         3.957392        -1.755415         1.605774
 C         3.769899         0.136185        -0.142220
 C         3.205378         0.460024        -1.560754
 O         1.821061         0.330668        -1.428699
 C         2.682030         0.138071         0.816589
 H         0.132821         0.178244         1.407051
 H         0.095701         1.343193         0.093369
 H        -0.829984        -0.322826        -0.074402
 H         1.360522        -2.330090         0.659227
 H         2.117286        -2.081587        -1.097489
 H         4.462676        -2.578882         1.418661
 H         4.833188         0.512463         0.062252
 H         3.416150         1.455301        -1.842244
 H         3.587426        -0.119479        -2.348030
 H         2.815756         0.483983         1.858827
