19
Iteration:  1410
 C         0.147910         0.272716         0.264685
 C         1.520668        -0.153251        -0.103728
 C         1.898492        -1.697825         0.012095
 C         3.338814        -1.141847         0.566605
 O         4.018952        -1.784024         1.635007
 C         3.759819         0.041524        -0.250384
 C         3.144049         0.497400        -1.589109
 O         1.757368         0.255961        -1.443106
 C         2.614577         0.197245         0.792348
 H         0.048047        -0.346830         1.234540
 H         0.219284         1.364594         0.472267
 H        -0.626088         0.012005        -0.429840
 H         1.420368        -2.320695         0.706828
 H         1.930701        -2.099595        -0.964914
 H         3.383972        -1.993715         2.340572
 H         4.712169         0.596887        -0.009380
 H         3.410080         1.597132        -1.361508
 H         3.427115         0.283818        -2.641960
 H         2.703542         0.902630         1.634310
