19
Iteration:   539
 C         0.037777         0.175572         0.184071
 C         1.418815        -0.144345        -0.079632
 C         1.911388        -1.685879         0.017057
 C         3.183657        -1.127713         0.643916
 O         4.181727        -1.765975         1.460403
 C         3.732586         0.134625        -0.136659
 C         3.252728         0.351140        -1.579469
 O         1.823379         0.372988        -1.368620
 C         2.601124         0.318583         0.862429
 H        -0.403304        -0.620655         0.905442
 H        -0.180231         1.234134         0.558975
 H        -0.537277         0.121407        -0.768885
 H         1.315262        -2.090113         0.746267
 H         1.817996        -2.273914        -0.851752
 H         4.034224        -2.676822         1.737411
 H         4.715843         0.516274         0.014411
 H         3.584860         1.268427        -2.007191
 H         3.507315        -0.518282        -2.165937
 H         2.553946         0.819941         1.789344
