19
Iteration:  4364charge 0 multiplicity 1
 C         0.139706         0.242733         0.293849
 C         1.509185        -0.169805        -0.108253
 C         1.992207        -1.653572        -0.055960
 C         3.170858        -1.128068         0.679349
 O         4.007826        -1.920831         1.548728
 C         3.737044         0.033121        -0.166889
 C         3.151268         0.396427        -1.581405
 O         1.712912         0.401044        -1.443496
 C         2.680043         0.304795         0.838740
 H        -0.276597        -0.134510         1.166727
 H         0.042191         1.253896         0.668120
 H        -0.574239         0.022632        -0.533593
 H         1.216514        -2.335824         0.414135
 H         2.438418        -2.025172        -0.981123
 H         4.781961        -1.359963         1.682214
 H         4.761858         0.210208         0.132167
 H         3.609330         1.333885        -1.828413
 H         3.462679        -0.241465        -2.472807
 H         2.573880         1.025966         1.643537
