19
Iteration:   962charge 0 multiplicity 1
 C         0.085333         0.188850         0.340237
 C         1.461655        -0.238246        -0.140793
 C         1.948788        -1.665657        -0.042980
 C         3.286200        -1.150299         0.573955
 O         4.018321        -1.816865         1.579397
 C         3.782539         0.099247        -0.219833
 C         3.155174         0.639640        -1.520500
 O         1.817458         0.209354        -1.475562
 C         2.671937         0.248860         0.818699
 H         0.033870         0.303276         1.506971
 H        -0.072218         1.270650        -0.101063
 H        -0.828420        -0.400499         0.058062
 H         1.373546        -2.048933         0.783082
 H         1.944777        -2.391060        -0.782614
 H         3.302834        -2.282683         2.022260
 H         4.817004         0.454882         0.002437
 H         3.216260         1.752557        -1.601469
 H         3.536550         0.322768        -2.517163
 H         2.750902         1.008128         1.622780
