19
Iteration:  4888charge 0 multiplicity 1
 C         0.103487         0.155817         0.437522
 C         1.482588        -0.135559        -0.145160
 C         1.912554        -1.594983        -0.033306
 C         3.204490        -1.098020         0.590028
 O         3.986934        -1.787484         1.603879
 C         3.789333        -0.007816        -0.241204
 C         3.300530         0.268679        -1.559721
 O         1.732588         0.491741        -1.428956
 C         2.697189         0.300572         0.701342
 H         0.224496         0.018372         1.492504
 H        -0.179586         1.188508         0.267478
 H        -0.686503        -0.509793        -0.025864
 H         1.249452        -2.211929         0.602309
 H         2.077691        -2.281872        -1.053568
 H         3.449582        -2.495475         2.022719
 H         4.856944         0.344358        -0.056029
 H         3.602948         1.276301        -1.903411
 H         3.487277        -0.496212        -2.323030
 H         2.663920         0.992859         1.548196
