19
Iteration:   938
 C         0.195456         0.204716         0.378630
 C         1.484887        -0.162522        -0.126952
 C         2.029595        -1.665196        -0.023373
 C         3.191145        -1.108598         0.665479
 O         4.018900        -1.856784         1.513418
 C         3.778153         0.186523        -0.157982
 C         3.189321         0.534879        -1.525174
 O         1.727280         0.211422        -1.513072
 C         2.587345         0.273337         0.772352
 H         0.028412         0.167006         1.544452
 H         0.053463         1.293389        -0.015686
 H        -0.656081        -0.410704        -0.152513
 H         1.438622        -2.296181         0.638605
 H         2.285700        -2.334320        -0.808390
 H         3.366517        -2.465847         1.921052
 H         4.796496         0.323798         0.062623
 H         3.320216         1.644780        -1.812926
 H         3.664575         0.088248        -2.404398
 H         2.433484         0.902602         1.587439
