19
Iteration:  1506
 C         0.003315         0.196734         0.101732
 C         1.440516        -0.163625         0.025588
 C         1.943173        -1.571864         0.139203
 C         3.242052        -1.045182         0.664112
 O         4.196825        -1.818001         1.367496
 C         3.758530         0.034064        -0.118010
 C         3.201487         0.267043        -1.548021
 O         1.735495         0.367233        -1.394800
 C         2.642011         0.307308         0.847458
 H        -0.438916         0.024194         1.087028
 H         0.110453         1.205292        -0.360821
 H        -0.533891        -0.110681        -0.788961
 H         1.299316        -1.972731         0.962403
 H         1.845576        -2.169629        -0.778892
 H         3.797051        -2.665490         1.659889
 H         4.614392         0.639982         0.196352
 H         3.460301         1.232332        -1.831274
 H         3.503270        -0.447482        -2.364584
 H         2.798124         0.932021         1.679894
