19
Iteration:   879
 C        -0.023250         0.093747        -0.029697
 C         1.400094        -0.095882        -0.079120
 C         1.882258        -1.631238         0.069820
 C         3.242606        -1.072643         0.690409
 O         4.269518        -1.814109         1.337753
 C         3.713170         0.094156        -0.117811
 C         3.123425         0.140982        -1.537512
 O         1.819316         0.581464        -1.278907
 C         2.672549         0.287262         0.948211
 H        -0.321487        -0.530123         0.750219
 H        -0.202965         1.028877         0.421041
 H        -0.610112        -0.077422        -0.937432
 H         1.371845        -2.252864         0.860331
 H         2.111856        -2.132064        -0.945080
 H         4.048749        -2.013453         2.280918
 H         4.768981         0.489814        -0.024113
 H         3.501382         0.974774        -2.078372
 H         3.037951        -0.848167        -2.009594
 H         2.889368         1.045776         1.774671
