19
Iteration:  2013charge 0 multiplicity 1
 C         0.171416         0.150497         0.495046
 C         1.479691        -0.072313        -0.122262
 C         1.921247        -1.670269        -0.054766
 C         3.194545        -1.111136         0.600714
 O         3.869108        -1.760023         1.638588
 C         3.792121         0.072302        -0.254435
 C         3.199921         0.457071        -1.629850
 O         1.780122         0.259018        -1.530990
 C         2.731319         0.247798         0.763243
 H         0.160256        -0.372466         1.450957
 H        -0.080328         1.215004         0.670596
 H        -0.738874        -0.184071         0.047678
 H         1.323643        -2.279475         0.656980
 H         2.089718        -2.058256        -1.053139
 H         4.705637        -2.084599         1.280034
 H         4.659353         0.554093         0.227141
 H         3.521270         1.559668        -1.739545
 H         3.606034        -0.266084        -2.298315
 H         2.614193         0.791911         1.823367
