19
Iteration:   160charge 0 multiplicity 1
 C        -0.001512         0.174979         0.293618
 C         1.459472        -0.187339        -0.121597
 C         1.979401        -1.718083         0.046692
 C         3.275134        -1.083009         0.577510
 O         3.933742        -1.805013         1.480420
 C         3.797979         0.090301        -0.149990
 C         3.247145         0.404281        -1.492582
 O         1.800451         0.394256        -1.465985
 C         2.603185         0.305968         0.816317
 H        -0.318640        -0.241168         1.313389
 H        -0.198552         1.290470         0.270530
 H        -0.790826        -0.422494        -0.412593
 H         1.555897        -2.444527         0.764546
 H         2.100010        -2.425842        -0.763052
 H         4.885428        -1.865313         1.415111
 H         4.749871         0.428034         0.223607
 H         3.629391         1.468422        -1.710580
 H         3.775056        -0.180051        -2.290617
 H         2.667238         0.870595         1.681335
