19
Iteration:  2831
 C        -0.061696         0.167601         0.094166
 C         1.450646        -0.089312        -0.007750
 C         1.928411        -1.677917         0.131580
 C         3.273134        -1.060599         0.606081
 O         4.166736        -1.847465         1.299575
 C         3.774395         0.100242        -0.153345
 C         3.220003         0.306747        -1.594198
 O         1.806304         0.440805        -1.351881
 C         2.595763         0.280430         0.994859
 H        -0.387220        -0.251385         1.055375
 H        -0.262985         1.254013         0.202672
 H        -0.622659        -0.413903        -0.529173
 H         1.374909        -2.106987         0.984806
 H         2.091401        -2.303009        -0.817245
 H         3.696557        -2.307053         2.019417
 H         4.737748         0.416269         0.009035
 H         3.657478         1.182540        -2.137864
 H         3.488187        -0.536289        -2.271991
 H         2.636808         1.001134         1.827460
