19
Iteration:  4037charge 0 multiplicity 1
 C        -0.010648         0.178827         0.073670
 C         1.461459        -0.115584        -0.066829
 C         1.914352        -1.619150         0.166097
 C         3.280804        -1.139587         0.603593
 O         4.102635        -1.868250         1.378182
 C         3.746400         0.090549        -0.131789
 C         3.221471         0.366603        -1.489192
 O         1.736406         0.452912        -1.325865
 C         2.691610         0.311416         0.874884
 H        -0.441205        -0.316447         0.845303
 H        -0.248737         1.155229         0.435851
 H        -0.399712        -0.163665        -0.874299
 H         1.427868        -2.114996         1.059254
 H         1.838687        -2.480114        -0.674900
 H         4.203504        -2.719376         0.926331
 H         4.883940         0.266446         0.014550
 H         3.507626         1.369521        -2.009861
 H         3.494466        -0.433221        -2.257157
 H         2.783772         0.962967         1.704757
