19
Iteration:   143charge 0 multiplicity 1
 C         0.006617         0.065925         0.168167
 C         1.496298        -0.115196        -0.081472
 C         1.913967        -1.528468         0.002485
 C         3.255417        -1.106335         0.702519
 O         4.053496        -1.927830         1.497798
 C         3.735646         0.174527        -0.165954
 C         3.248738         0.359773        -1.585349
 O         1.820462         0.368324        -1.369362
 C         2.587924         0.302975         0.874304
 H        -0.249018        -0.159477         1.172821
 H        -0.284741         1.095329         0.128539
 H        -0.620110        -0.463517        -0.430210
 H         1.283085        -1.945600         0.801361
 H         1.983868        -2.082540        -1.008104
 H         4.862030        -2.011135         0.978796
 H         4.705133         0.565453         0.293083
 H         3.572092         1.241559        -2.093729
 H         3.448111        -0.490831        -2.248780
 H         2.520482         1.110758         1.746916
