19
Iteration:  1048charge 0 multiplicity 1
 C        -0.056177         0.145813         0.148019
 C         1.440867        -0.164401        -0.093756
 C         2.015364        -1.524358         0.056057
 C         3.281018        -1.008284         0.677398
 O         4.169175        -1.843009         1.369350
 C         3.769264         0.142646        -0.088111
 C         3.187045         0.201300        -1.555170
 O         1.747167         0.423332        -1.334533
 C         2.599047         0.301756         0.881720
 H        -0.385451        -0.715084         0.790881
 H        -0.188115         1.170946         0.528648
 H        -0.481306         0.230337        -0.841216
 H         1.430767        -2.182492         0.731778
 H         2.188464        -2.087387        -0.876654
 H         3.795160        -2.723745         1.545066
 H         4.818398         0.506997         0.078370
 H         3.697722         0.929172        -2.169646
 H         3.367783        -0.755167        -2.038836
 H         2.402204         0.966665         1.750229
