19
Iteration:  4977
 C         0.119140         0.363079         0.185086
 C         1.420704        -0.160665        -0.145644
 C         1.835871        -1.649454         0.242984
 C         3.190509        -1.124080         0.727819
 O         4.171403        -1.833076         1.343635
 C         3.771657         0.011977        -0.133461
 C         3.200214         0.458438        -1.551757
 O         1.795927         0.185557        -1.512582
 C         2.651060         0.304653         0.816870
 H        -0.392977         0.094980         1.108488
 H         0.078572         1.395108         0.440279
 H        -0.625806         0.294101        -0.555411
 H         1.193367        -1.944464         1.098893
 H         1.922149        -2.552635        -0.529780
 H         3.757912        -2.517454         1.922911
 H         4.779294         0.196648         0.138875
 H         3.396432         1.535336        -1.521129
 H         3.734803         0.095298        -2.362474
 H         2.555852         1.055440         1.613219
