19
Iteration:  3422charge 0 multiplicity 1
 C         0.023758         0.084780         0.304874
 C         1.475978        -0.162355        -0.142506
 C         2.059481        -1.637051        -0.083885
 C         3.266121        -1.069963         0.518861
 O         3.978632        -1.784683         1.502233
 C         3.726572         0.117774        -0.142012
 C         3.242306         0.258747        -1.521961
 O         1.770792         0.562972        -1.315364
 C         2.598675         0.265231         0.850414
 H        -0.085539        -0.613827         1.171420
 H        -0.192138         1.061952         0.660427
 H        -0.621887         0.070942        -0.560390
 H         1.475939        -1.981434         0.777608
 H         2.128560        -2.293998        -1.027873
 H         4.347966        -2.634517         1.215955
 H         4.798212         0.384288         0.213853
 H         3.733123         0.995184        -2.189132
 H         3.314090        -0.739203        -2.112784
 H         2.532430         0.776274         1.824061
