19
Iteration:  3545
 C         0.012848         0.347620         0.156342
 C         1.442689        -0.167991         0.004163
 C         1.933672        -1.701590         0.036720
 C         3.185793        -1.099653         0.659452
 O         4.173375        -1.895301         1.301880
 C         3.712126         0.090657        -0.059208
 C         3.202580         0.446477        -1.484450
 O         1.839590         0.234178        -1.397638
 C         2.524566         0.318608         0.880013
 H        -0.344178         0.414105         1.161154
 H         0.016113         1.429099         0.021812
 H        -0.598514        -0.354687        -0.431674
 H         1.446918        -2.444055         0.653491
 H         2.011904        -2.260521        -1.036475
 H         5.007162        -1.807234         0.815448
 H         4.707740         0.468760         0.148839
 H         3.489557         1.527339        -1.461579
 H         3.592480        -0.307775        -2.130115
 H         2.429911         0.843620         1.841874
