19
Iteration:  2446charge 0 multiplicity 1
 C         0.022513         0.280472         0.268131
 C         1.463451        -0.171978        -0.064211
 C         1.887411        -1.690848         0.120991
 C         3.209156        -1.034367         0.659840
 O         4.082363        -1.839400         1.221714
 C         3.718248         0.149272        -0.142479
 C         3.285330         0.461274        -1.483552
 O         1.853769         0.152032        -1.401540
 C         2.616301         0.249047         0.846007
 H        -0.042624         0.025394         1.378868
 H        -0.278079         1.302347        -0.106863
 H        -0.595947        -0.351355        -0.454248
 H         1.213167        -2.186796         0.746900
 H         1.964708        -2.376426        -0.756167
 H         4.022102        -1.875772         2.183184
 H         4.818671         0.575059         0.101311
 H         3.387324         1.655158        -1.589969
 H         3.783125         0.012045        -2.406020
 H         2.464412         1.041385         1.680858
