19
Iteration:  1565charge 0 multiplicity 1
 C         0.160298         0.319320         0.335749
 C         1.489385        -0.143949        -0.138536
 C         1.936016        -1.678126         0.023458
 C         3.230776        -1.153178         0.570222
 O         4.075287        -1.786584         1.438196
 C         3.727696         0.133372        -0.111194
 C         3.142045         0.455832        -1.504792
 O         1.810606         0.100816        -1.519197
 C         2.583513         0.294615         0.809979
 H        -0.065607        -0.030513         1.358348
 H         0.264086         1.398065         0.430515
 H        -0.663599        -0.095961        -0.267341
 H         1.488509        -2.144681         0.845134
 H         1.914143        -2.399521        -0.786474
 H         3.539349        -1.706506         2.257808
 H         4.796053         0.247384         0.221526
 H         3.094024         1.540979        -1.571081
 H         3.799862         0.041394        -2.279541
 H         2.565319         1.123606         1.619917
