19
Iteration:  1542charge 0 multiplicity 1
 C         0.045479         0.312082         0.297962
 C         1.452256        -0.204184        -0.102228
 C         1.840519        -1.700507         0.144915
 C         3.188517        -1.120792         0.654245
 O         4.109469        -1.766225         1.407812
 C         3.786126         0.080943        -0.212334
 C         3.247789         0.591806        -1.553886
 O         1.860315         0.081442        -1.485874
 C         2.647458         0.288457         0.757924
 H        -0.278976         0.023623         1.327324
 H         0.150571         1.379279         0.369013
 H        -0.770420        -0.050128        -0.308750
 H         1.327047        -2.076007         0.982021
 H         1.873843        -2.457360        -0.584113
 H         3.586330        -2.369768         1.973170
 H         4.616474         0.522971         0.286020
 H         3.252998         1.670870        -1.540643
 H         3.778991         0.210963        -2.454384
 H         2.597498         0.866805         1.712087
