19
Iteration:  4126charge 0 multiplicity 1
 C         0.012501         0.282748         0.311897
 C         1.471982        -0.146712        -0.086655
 C         1.981737        -1.698765        -0.101481
 C         3.212161        -1.168495         0.658795
 O         4.068360        -1.868403         1.581738
 C         3.771909         0.058994        -0.162712
 C         3.168041         0.395921        -1.599309
 O         1.740324         0.444608        -1.426688
 C         2.643907         0.236380         0.854551
 H        -0.088857         0.286303         1.343016
 H        -0.077046         1.322472         0.012712
 H        -0.661429        -0.359083        -0.222137
 H         1.319905        -2.218495         0.577005
 H         2.152645        -2.137053        -1.193632
 H         4.918581        -2.190313         1.253350
 H         4.774480         0.327023        -0.067100
 H         3.550958         1.514353        -1.755832
 H         3.586116        -0.331966        -2.376747
 H         2.571613         0.793899         1.819639
