19
Iteration:  2704charge 0 multiplicity 1
 C         0.073692        -0.005842         0.167381
 C         1.553713        -0.074320        -0.083758
 C         1.949120        -1.532124         0.020118
 C         3.254036        -1.139915         0.634557
 O         4.193090        -1.777749         1.480082
 C         3.685696        -0.020760        -0.179208
 C         3.089701         0.204518        -1.595076
 O         1.757369         0.611687        -1.329455
 C         2.646443         0.289568         0.881986
 H        -0.254783        -0.147321         1.191355
 H        -0.185066         1.016877        -0.080802
 H        -0.564850        -0.447487        -0.713729
 H         1.207705        -2.035585         0.596810
 H         1.943101        -2.051079        -0.884536
 H         3.783797        -2.195828         2.269427
 H         4.594917         0.429588         0.002245
 H         3.601603         1.004210        -2.085255
 H         3.052422        -0.755985        -2.120965
 H         2.734877         0.945979         1.632512
