19
Iteration:   574
 C        -0.074456         0.114096         0.153116
 C         1.446594        -0.133542        -0.044334
 C         2.046063        -1.629179        -0.025988
 C         3.237575        -1.071688         0.682236
 O         4.188298        -1.892762         1.333395
 C         3.732313         0.167437        -0.069291
 C         3.218959         0.163193        -1.430692
 O         1.817778         0.484374        -1.374728
 C         2.535755         0.469441         0.843914
 H        -0.406225        -0.101058         1.184231
 H        -0.057390         1.191143        -0.013593
 H        -0.694381        -0.497032        -0.627488
 H         1.524551        -2.217262         0.739364
 H         2.126635        -2.127928        -0.961328
 H         3.736333        -2.702234         1.614211
 H         4.678754         0.715836         0.165773
 H         3.716175         0.762346        -2.163781
 H         3.260040        -0.869910        -1.923792
 H         2.452388         1.182479         1.707069
