19
Iteration:  4061charge 0 multiplicity 1
 C         0.011305         0.267287         0.229709
 C         1.466958        -0.142052        -0.057118
 C         1.832246        -1.620444         0.110309
 C         3.214678        -1.113959         0.693821
 O         4.120409        -1.865912         1.388043
 C         3.750750         0.041898        -0.164084
 C         3.254521         0.513859        -1.515804
 O         1.840967         0.211461        -1.435665
 C         2.628271         0.290896         0.852676
 H        -0.395898        -0.259359         1.071518
 H        -0.134006         1.242631         0.581322
 H        -0.530660        -0.026981        -0.637687
 H         1.212136        -2.168546         0.812393
 H         1.811017        -2.269789        -0.893470
 H         4.475496        -2.446952         0.681466
 H         4.680267         0.451864         0.152059
 H         3.434715         1.630971        -1.538775
 H         3.702798         0.153744        -2.502060
 H         2.600798         1.055168         1.610568
