19
Iteration:  4666
 C         0.008100         0.280003         0.227113
 C         1.457843        -0.142972        -0.057891
 C         1.944128        -1.712085         0.071939
 C         3.203969        -1.122595         0.660559
 O         4.075844        -1.984750         1.431532
 C         3.781020         0.140990        -0.184851
 C         3.174182         0.327869        -1.602841
 O         1.799328         0.429950        -1.406361
 C         2.655658         0.308454         0.885457
 H        -0.373627        -0.368990         1.065596
 H         0.018322         1.385411         0.382830
 H        -0.475961        -0.056672        -0.686690
 H         1.336017        -2.233181         0.746167
 H         2.126765        -2.054710        -0.963839
 H         4.349598        -1.474090         2.227968
 H         4.888036         0.368876         0.052356
 H         3.453545         1.355828        -2.096708
 H         3.631042        -0.369562        -2.400608
 H         2.482781         1.108662         1.642480
