19
Iteration:  3959charge 0 multiplicity 1
 C         0.129174         0.147195         0.482515
 C         1.471362        -0.137077        -0.158072
 C         1.867687        -1.672183        -0.093183
 C         3.269901        -1.193758         0.539344
 O         3.912001        -1.859509         1.623905
 C         3.787095         0.118899        -0.159497
 C         3.254618         0.523002        -1.541002
 O         1.790087         0.401955        -1.513355
 C         2.649437         0.190742         0.743902
 H         0.289683        -0.113580         1.448226
 H        -0.193365         1.182994         0.489866
 H        -0.688042        -0.393147         0.048225
 H         1.304887        -2.042043         0.811768
 H         1.927735        -2.213566        -1.113552
 H         4.833609        -2.124688         1.516990
 H         4.731095         0.580172         0.083343
 H         3.416669         1.641320        -1.660406
 H         3.506849        -0.130334        -2.375016
 H         2.619486         0.956301         1.575023
