19
Iteration:  2551charge 0 multiplicity 1
 C        -0.095986         0.062751         0.262828
 C         1.394756        -0.037156        -0.120590
 C         1.970412        -1.622345         0.035205
 C         3.248066        -1.063235         0.648884
 O         4.160013        -1.916453         1.352871
 C         3.767407         0.173338        -0.190432
 C         3.244276         0.157121        -1.542580
 O         1.846841         0.524325        -1.357385
 C         2.609617         0.377447         0.853759
 H        -0.316090        -0.302492         1.267001
 H        -0.379069         1.118481         0.268967
 H        -0.740908        -0.616301        -0.405786
 H         1.389298        -2.196889         0.887269
 H         2.119631        -2.215275        -0.871664
 H         3.735221        -1.972938         2.222518
 H         4.805829         0.365490         0.233242
 H         3.824825         0.903530        -2.138155
 H         3.374275        -0.860075        -2.101973
 H         2.562210         1.234110         1.703874
