19
Iteration:  2786charge 0 multiplicity 1
 C        -0.010700         0.327354         0.249710
 C         1.427211        -0.201918        -0.108088
 C         1.934637        -1.728761         0.112303
 C         3.188407        -1.089377         0.632647
 O         4.199464        -1.824475         1.373114
 C         3.706909         0.056618        -0.185336
 C         3.239870         0.554742        -1.519372
 O         1.812140         0.195196        -1.462145
 C         2.592273         0.262700         0.845198
 H        -0.453803        -0.015067         1.207509
 H         0.133691         1.479658         0.276552
 H        -0.735094        -0.012963        -0.422080
 H         1.570334        -2.288849         1.035066
 H         2.012837        -2.273975        -0.918639
 H         3.832069        -2.203816         2.200421
 H         4.643229         0.172617         0.336447
 H         3.518475         1.626714        -1.645051
 H         3.700008         0.160500        -2.413709
 H         2.792362         0.987171         1.797180
