19
Iteration:  1297charge 0 multiplicity 1
 C         0.056869         0.093786         0.212871
 C         1.487841        -0.096019        -0.137567
 C         1.943522        -1.602735        -0.006816
 C         3.271687        -1.126028         0.624125
 O         4.087045        -1.841054         1.512816
 C         3.759962         0.066829        -0.169755
 C         3.148112         0.381119        -1.527334
 O         1.798336         0.428445        -1.351211
 C         2.655321         0.284674         0.787061
 H         0.169327         0.089355         1.376038
 H        -0.480271         1.016228        -0.197075
 H        -0.648850        -0.653766        -0.286357
 H         1.337071        -2.093259         0.730636
 H         1.859043        -2.168850        -0.895189
 H         3.534573        -2.127034         2.248017
 H         4.672300         0.493347         0.125999
 H         3.586863         1.285146        -2.009951
 H         3.254248        -0.463975        -2.304618
 H         2.817435         0.957249         1.600985
