19
Iteration:    75charge 0 multiplicity 1
 C         0.069493         0.170973         0.196432
 C         1.470150        -0.162902        -0.118448
 C         1.938911        -1.668339        -0.024880
 C         3.283743        -1.182846         0.596371
 O         4.064291        -1.746611         1.603326
 C         3.754381         0.088500        -0.102911
 C         3.184171         0.415075        -1.515089
 O         1.686309         0.440856        -1.495722
 C         2.670628         0.219824         0.902011
 H        -0.262759        -0.139798         1.180742
 H         0.023351         1.205731         0.188486
 H        -0.550952        -0.299129        -0.622135
 H         1.261212        -1.996483         0.788851
 H         2.053068        -2.230351        -1.015451
 H         4.641337        -2.448894         1.201119
 H         4.777443         0.351073         0.112488
 H         3.581486         1.287996        -2.001840
 H         3.556620        -0.419537        -2.170593
 H         2.586445         0.773588         1.785840
