19
Iteration:  2896
 C         0.044161         0.129777         0.373971
 C         1.438248        -0.187300        -0.123622
 C         1.985872        -1.692167        -0.099827
 C         3.245685        -1.090307         0.545808
 O         4.016558        -1.753362         1.513229
 C         3.862208         0.021731        -0.204344
 C         3.254577         0.380407        -1.530296
 O         1.744790         0.442759        -1.375928
 C         2.632745         0.290025         0.786454
 H        -0.090132        -0.182013         1.448787
 H         0.151294         1.250277         0.458109
 H        -0.749642        -0.384729        -0.066855
 H         1.394190        -2.292699         0.582897
 H         2.051112        -2.200722        -1.077054
 H         3.334839        -2.129408         2.095583
 H         4.779422         0.456427         0.210826
 H         3.548272         1.403844        -1.774055
 H         3.374983        -0.337816        -2.330409
 H         2.605789         0.913067         1.636838
