19
Iteration:  3728charge 0 multiplicity 1
 C        -0.001536         0.138507        -0.013117
 C         1.456949        -0.136708        -0.043218
 C         1.895912        -1.628187         0.166616
 C         3.242666        -1.125087         0.614812
 O         4.135062        -1.982009         1.216361
 C         3.659908         0.222672        -0.092876
 C         3.210947         0.274747        -1.480000
 O         1.803234         0.476322        -1.269103
 C         2.647851         0.350050         1.002000
 H        -0.484275        -0.158236         0.914716
 H        -0.075976         1.243347         0.235159
 H        -0.402505        -0.096536        -1.029096
 H         1.351161        -1.974760         1.150488
 H         1.874099        -2.306167        -0.705231
 H         4.998814        -2.069045         0.774742
 H         4.748751         0.648915         0.123301
 H         3.554403         1.146035        -1.975418
 H         3.481403        -0.741085        -2.005809
 H         2.725662         0.994917         1.879628
