19
Iteration:  2440charge 0 multiplicity 1
 C        -0.009206         0.266750         0.228839
 C         1.466324        -0.156667        -0.089009
 C         1.932773        -1.683029         0.132842
 C         3.188970        -1.036617         0.630075
 O         4.119517        -1.877015         1.208487
 C         3.717291         0.131046        -0.113710
 C         3.272640         0.441339        -1.462690
 O         1.852366         0.166104        -1.397088
 C         2.596231         0.326357         0.868097
 H        -0.140864         0.142257         1.310184
 H        -0.261243         1.318179        -0.014994
 H        -0.674549        -0.349033        -0.331255
 H         1.348067        -2.272886         0.933098
 H         1.892525        -2.153870        -0.871917
 H         4.143261        -1.865794         2.186719
 H         4.646183         0.400171         0.242369
 H         3.449562         1.449482        -1.713529
 H         3.700253        -0.038698        -2.324439
 H         2.511684         1.013168         1.623452
