19
Iteration:  2373charge 0 multiplicity 1
 C         0.033574         0.077148         0.261066
 C         1.487858        -0.083880        -0.057558
 C         1.936800        -1.624247        -0.070106
 C         3.204954        -1.099161         0.632956
 O         4.090842        -1.728131         1.527130
 C         3.771399         0.038677        -0.189062
 C         3.161078         0.256187        -1.546446
 O         1.762421         0.524190        -1.309485
 C         2.714847         0.273186         0.776398
 H        -0.277214        -0.437677         1.195312
 H        -0.260973         1.166009         0.258455
 H        -0.385257        -0.248234        -0.619945
 H         1.488696        -2.390352         0.620742
 H         1.911735        -2.122003        -1.094763
 H         3.821104        -2.656183         1.586210
 H         4.906002         0.301517        -0.113140
 H         3.639189         1.023351        -2.077383
 H         3.280765        -0.611078        -2.209946
 H         2.640067         0.947672         1.659511
