19
Iteration:  3252
 C         0.058711         0.013324         0.318595
 C         1.492340        -0.175349        -0.066807
 C         1.977398        -1.692813        -0.134808
 C         3.193886        -1.106846         0.552816
 O         3.931759        -1.741219         1.630576
 C         3.769412         0.046892        -0.238898
 C         3.199706         0.367535        -1.540096
 O         1.794207         0.596901        -1.279951
 C         2.695573         0.240163         0.775349
 H        -0.356082        -0.788706         0.943018
 H         0.001983         1.070072         0.597909
 H        -0.631010        -0.189462        -0.579933
 H         1.367383        -2.382816         0.450820
 H         2.065003        -2.063613        -1.145416
 H         4.704498        -2.153113         1.177290
 H         4.847198         0.417550         0.103933
 H         3.693342         1.217400        -1.972154
 H         3.343832        -0.319491        -2.406487
 H         2.836876         0.946623         1.606554
