19
Iteration:  3707
 C        -0.156905         0.215989         0.071341
 C         1.393841        -0.090474        -0.005728
 C         1.911184        -1.572895         0.131944
 C         3.269064        -1.135145         0.646201
 O         4.202986        -1.964569         1.285400
 C         3.818139         0.077975        -0.067642
 C         3.257175         0.379928        -1.500770
 O         1.810939         0.426220        -1.353511
 C         2.577822         0.247303         0.915449
 H        -0.649136         0.037990         1.045343
 H        -0.417474         1.315803        -0.027610
 H        -0.448058        -0.471004        -0.792933
 H         1.433091        -2.080412         0.996173
 H         1.902454        -2.172916        -0.770104
 H         4.963378        -2.023303         0.679225
 H         4.879011         0.402098         0.338284
 H         3.540659         1.320393        -1.868519
 H         3.290536        -0.374899        -2.186105
 H         2.581572         0.934090         1.756833
