19
Iteration:  3233charge 0 multiplicity 1
 C         0.126925         0.110638         0.375395
 C         1.515044        -0.146639        -0.190867
 C         2.067691        -1.679009        -0.180057
 C         3.185054        -1.143237         0.669379
 O         3.982825        -1.769014         1.627754
 C         3.782437         0.010736        -0.152236
 C         3.157909         0.448935        -1.558789
 O         1.719969         0.492376        -1.393424
 C         2.615548         0.203561         0.814171
 H        -0.014356        -0.483428         1.265912
 H         0.062081         1.222270         0.613091
 H        -0.670210        -0.003587        -0.324423
 H         1.320881        -2.378563         0.413933
 H         2.340649        -2.004637        -1.236277
 H         4.428766        -2.588512         1.325412
 H         4.771250         0.409235         0.034542
 H         3.478045         1.439131        -1.907131
 H         3.365536        -0.094858        -2.470502
 H         2.400522         1.002247         1.586109
