19
Iteration:  1270charge 0 multiplicity 1
 C         0.078195         0.184165         0.470308
 C         1.442776        -0.207130        -0.112540
 C         1.966079        -1.777086        -0.102111
 C         3.192702        -1.116044         0.600135
 O         4.011559        -1.725233         1.541955
 C         3.787518         0.030249        -0.130905
 C         3.280572         0.501666        -1.578391
 O         1.802592         0.374214        -1.544857
 C         2.599896         0.247451         0.790273
 H         0.109790        -0.181808         1.442311
 H         0.050673         1.304808         0.555887
 H        -0.737646        -0.247969        -0.115722
 H         1.437241        -2.517840         0.591299
 H         2.056945        -2.131137        -1.213054
 H         3.552798        -1.682898         2.382867
 H         4.870263         0.170028         0.269342
 H         3.591064         1.523347        -1.964354
 H         3.421364        -0.233554        -2.421891
 H         2.588889         1.002436         1.635801
