19
Iteration:   508
 C         0.053290         0.271488         0.242591
 C         1.472089        -0.187616        -0.130368
 C         2.008930        -1.704145        -0.002185
 C         3.278088        -1.109746         0.618318
 O         4.035685        -1.801091         1.551785
 C         3.792411        -0.001807        -0.251279
 C         3.165826         0.591640        -1.508531
 O         1.783955         0.231910        -1.442223
 C         2.606672         0.226811         0.813681
 H        -0.341664        -0.474589         0.957509
 H        -0.041449         1.271232         0.629532
 H        -0.720315         0.182151        -0.560808
 H         1.527231        -2.102109         0.936266
 H         2.043457        -2.380084        -0.837520
 H         3.662387        -1.918274         2.456854
 H         4.720189         0.463966        -0.024120
 H         3.267547         1.666797        -1.411000
 H         3.591721         0.242965        -2.569344
 H         2.792801         0.854813         1.641483
