19
Iteration:  1028
 C        -0.094778         0.170874         0.101011
 C         1.419404        -0.109018        -0.025378
 C         2.034007        -1.724143         0.020916
 C         3.275251        -0.995767         0.638526
 O         4.245155        -1.873507         1.270668
 C         3.717198         0.149337        -0.022087
 C         3.150796         0.104982        -1.506698
 O         1.832876         0.497404        -1.353518
 C         2.553547         0.402179         0.925809
 H        -0.589067        -0.524577         0.885501
 H        -0.358200         1.286282         0.351848
 H        -0.644559         0.088536        -0.861951
 H         1.463547        -2.259252         0.736050
 H         2.229357        -2.302918        -0.814503
 H         3.873899        -2.437161         2.000321
 H         4.619340         0.794461         0.251571
 H         3.672107         0.759660        -2.173994
 H         3.301193        -0.859681        -1.965653
 H         2.668332         1.247505         1.694775
