19
Iteration:    84
 C         0.015068         0.167524         0.135965
 C         1.487241        -0.151394        -0.067346
 C         1.866746        -1.714169        -0.012817
 C         3.280273        -1.097344         0.613539
 O         4.140815        -1.789771         1.589776
 C         3.732435         0.164871        -0.135607
 C         3.193203         0.348000        -1.541158
 O         1.775301         0.496333        -1.394738
 C         2.630785         0.215968         0.845627
 H        -0.233175        -0.230674         1.148316
 H        -0.144295         1.248507        -0.035221
 H        -0.578523        -0.367103        -0.721980
 H         1.421868        -2.366196         0.774454
 H         1.675083        -2.316257        -0.918497
 H         4.583842        -2.592935         1.213642
 H         4.694326         0.486011         0.138258
 H         3.671939         1.227860        -2.028642
 H         3.347710        -0.638251        -2.046043
 H         2.575993         0.804107         1.670762
