19
Iteration:  2350
 C         0.034595         0.048236         0.435567
 C         1.517539        -0.089678        -0.178454
 C         2.030176        -1.564349        -0.068370
 C         3.275293        -1.111073         0.643119
 O         3.981036        -1.805449         1.689273
 C         3.749756         0.023460        -0.221717
 C         3.184260         0.378133        -1.696338
 O         1.735107         0.463787        -1.483561
 C         2.672941         0.236166         0.851586
 H         0.014936        -0.499042         1.418971
 H        -0.052457         1.170127         0.695304
 H        -0.760017        -0.063115        -0.210449
 H         1.302955        -2.184111         0.501767
 H         1.963633        -2.135816        -1.078394
 H         4.017599        -2.731153         1.391022
 H         4.816880         0.546881         0.032458
 H         3.633053         1.274654        -1.984272
 H         3.433767        -0.283921        -2.532569
 H         2.734662         1.075744         1.659348
