19
Iteration:  1063charge 0 multiplicity 1
 C         0.048967         0.109839         0.224027
 C         1.498365        -0.075189        -0.030003
 C         1.929970        -1.690876        -0.002814
 C         3.242512        -1.106473         0.647436
 O         4.148475        -1.805707         1.494544
 C         3.758786         0.122802        -0.158114
 C         3.183090         0.343484        -1.580161
 O         1.784445         0.380199        -1.464893
 C         2.602470         0.354349         0.890378
 H        -0.416128        -0.634699         0.896018
 H        -0.157287         1.121924         0.719975
 H        -0.487613         0.023363        -0.770424
 H         1.347845        -2.134612         0.753501
 H         1.813026        -2.252650        -0.883894
 H         3.706467        -2.690885         1.517886
 H         4.632613         0.611241         0.217063
 H         3.410722         1.327992        -1.963733
 H         3.486279        -0.428331        -2.285852
 H         2.716088         0.924831         1.801993
