19
Iteration:  3278charge 0 multiplicity 1
 C        -0.032511         0.037821         0.197450
 C         1.464644        -0.055536        -0.096332
 C         1.998106        -1.546740        -0.046051
 C         3.287895        -1.089032         0.558484
 O         4.050131        -1.901474         1.575761
 C         3.823354         0.110548        -0.128750
 C         3.155869         0.315466        -1.561794
 O         1.743966         0.571711        -1.371372
 C         2.664134         0.195912         0.885335
 H        -0.248955        -0.709533         0.974728
 H        -0.433173         1.044004         0.441725
 H        -0.577857        -0.260100        -0.665345
 H         1.336745        -1.869752         0.890371
 H         1.949765        -2.307498        -0.928010
 H         4.818201        -2.236974         1.052338
 H         4.650232         0.550671         0.214473
 H         3.624475         1.034348        -2.227512
 H         3.245134        -0.478164        -2.225237
 H         2.731231         0.647832         1.874884
