19
Iteration:  1550charge 0 multiplicity 1
 C         0.133751         0.314281         0.327403
 C         1.453082        -0.263340        -0.080432
 C         1.845478        -1.674889         0.149775
 C         3.226203        -1.077471         0.584051
 O         4.070695        -1.760600         1.407009
 C         3.786250         0.074951        -0.209109
 C         3.258811         0.584095        -1.463217
 O         1.834629         0.061620        -1.547273
 C         2.593554         0.294065         0.786421
 H        -0.127164        -0.147957         1.291079
 H         0.026425         1.380035         0.240277
 H        -0.764807         0.165577        -0.246153
 H         1.368383        -2.227623         1.015536
 H         1.784469        -2.283464        -0.778720
 H         3.574611        -2.209421         2.126474
 H         4.729337         0.481481         0.071530
 H         3.384464         1.632454        -1.439051
 H         3.639817         0.146515        -2.405461
 H         2.481682         0.962677         1.583165
