19
Iteration:   389
 C        -0.082578         0.096270         0.117796
 C         1.396069        -0.184511        -0.083465
 C         1.990542        -1.669815         0.065662
 C         3.320670        -1.100537         0.625111
 O         4.081283        -1.796961         1.598669
 C         3.801121         0.100343        -0.212941
 C         3.223598         0.391520        -1.569048
 O         1.797874         0.487737        -1.300999
 C         2.665956         0.272173         0.774355
 H        -0.396536        -0.503628         0.950492
 H        -0.292129         1.112150         0.303493
 H        -0.659015        -0.278687        -0.745447
 H         1.167859        -2.116577         0.803002
 H         2.001827        -2.215812        -0.929624
 H         4.060450        -2.740528         1.386137
 H         4.684558         0.694764         0.003938
 H         3.563473         1.301870        -2.103663
 H         3.526044        -0.365018        -2.281111
 H         2.638556         0.950937         1.617355
