19
Iteration:  2842
 C        -0.084646         0.126775         0.218741
 C         1.440190        -0.126967        -0.057118
 C         2.036011        -1.575743         0.078111
 C         3.254712        -1.049541         0.648533
 O         4.133049        -1.870106         1.293077
 C         3.757361         0.107694        -0.143209
 C         3.219322         0.217650        -1.528737
 O         1.836870         0.490857        -1.356815
 C         2.595117         0.300695         0.859514
 H        -0.314887        -0.214474         1.216126
 H        -0.424632         1.170005         0.043116
 H        -0.587063        -0.301073        -0.574834
 H         1.508896        -2.164104         0.855658
 H         2.001729        -2.350327        -0.782211
 H         3.605882        -2.336159         1.959770
 H         4.660579         0.441589         0.243923
 H         3.615526         1.179467        -1.921153
 H         3.331818        -0.695521        -2.156713
 H         2.616124         1.088133         1.587352
