19
Iteration:  2026
 C         0.005878         0.272222         0.526158
 C         1.439763        -0.187289        -0.174748
 C         1.958948        -1.605787        -0.038295
 C         3.299124        -1.155223         0.586582
 O         3.983011        -1.805146         1.635299
 C         3.802904         0.052711        -0.180909
 C         3.226520         0.438600        -1.569625
 O         1.785143         0.294840        -1.569279
 C         2.607570         0.234969         0.757820
 H        -0.018959        -0.242014         1.526764
 H        -0.034624         1.394729         0.668626
 H        -0.763827        -0.080700        -0.114800
 H         1.340247        -2.213528         0.721431
 H         1.929964        -2.286605        -0.969633
 H         4.904327        -2.057709         1.403226
 H         4.788265         0.375663        -0.033151
 H         3.429027         1.485131        -1.791411
 H         3.623798        -0.015723        -2.520962
 H         2.557071         0.947118         1.533312
