19
Iteration:  2209charge 0 multiplicity 1
 C        -0.005877         0.133945         0.307171
 C         1.456042        -0.089851        -0.071009
 C         2.006637        -1.674162        -0.010026
 C         3.268226        -1.082006         0.644167
 O         4.021253        -1.868474         1.504262
 C         3.757330         0.100702        -0.165861
 C         3.255227         0.373403        -1.577177
 O         1.786379         0.423762        -1.412409
 C         2.612513         0.331605         0.832636
 H        -0.320287        -0.448022         1.203009
 H        -0.395035         1.169001         0.475443
 H        -0.544376        -0.256155        -0.494086
 H         1.379679        -2.241446         0.680561
 H         2.051035        -2.200407        -0.930255
 H         4.344673        -2.610119         0.960677
 H         4.742673         0.378279         0.259949
 H         3.605506         1.307877        -2.020408
 H         3.432586        -0.376931        -2.349755
 H         2.720265         1.025530         1.597635
