19
Iteration:  4820charge 0 multiplicity 1
 C         0.030085         0.408582         0.201276
 C         1.437237        -0.122827        -0.090778
 C         1.917148        -1.624680         0.195288
 C         3.229185        -1.107286         0.715557
 O         4.205626        -1.924484         1.312969
 C         3.681686         0.084006        -0.176044
 C         3.249320         0.357405        -1.580620
 O         1.798180         0.262238        -1.411517
 C         2.560537         0.269103         0.853329
 H        -0.391033         0.039955         1.094292
 H         0.182585         1.484019         0.097148
 H        -0.539995         0.149819        -0.743730
 H         1.266813        -2.220067         0.871371
 H         1.857954        -2.371472        -0.798399
 H         3.972391        -2.173200         2.222251
 H         4.664823         0.308498         0.131992
 H         3.622024         1.396904        -1.775954
 H         3.590701        -0.293748        -2.344425
 H         2.594757         0.846205         1.766497
