19
Iteration:  4550
 C         0.174240         0.290166         0.425191
 C         1.546934        -0.266309        -0.138048
 C         1.882179        -1.772239        -0.129022
 C         3.274437        -1.167103         0.529324
 O         3.880553        -1.743036         1.671391
 C         3.800425         0.097292        -0.216947
 C         3.232703         0.597100        -1.532240
 O         1.745516         0.325645        -1.407066
 C         2.649919         0.169595         0.726458
 H         0.011237         0.069688         1.425525
 H         0.251815         1.357445         0.405201
 H        -0.483488        -0.210185        -0.289710
 H         1.366064        -2.312393         0.814011
 H         1.914892        -2.259658        -1.177296
 H         4.007350        -2.698629         1.529645
 H         4.839597         0.537493         0.081520
 H         3.242191         1.646010        -1.863403
 H         3.631285         0.052812        -2.371491
 H         2.606597         0.860771         1.608510
