19
Iteration:  2028
 C         0.000742         0.280824         0.511526
 C         1.449854        -0.193829        -0.160026
 C         1.962463        -1.612838        -0.038199
 C         3.296026        -1.154880         0.583748
 O         3.997850        -1.811612         1.634267
 C         3.795588         0.056493        -0.176620
 C         3.238548         0.437264        -1.557586
 O         1.776284         0.299584        -1.560538
 C         2.584280         0.244610         0.752899
 H        -0.005679        -0.254278         1.508808
 H        -0.002945         1.400949         0.604097
 H        -0.839470        -0.044655        -0.139155
 H         1.362721        -2.206222         0.746019
 H         1.905562        -2.333598        -0.971012
 H         4.901453        -2.043889         1.359981
 H         4.808950         0.356709        -0.051148
 H         3.428257         1.439471        -1.798954
 H         3.618142        -0.002473        -2.547651
 H         2.640738         0.932985         1.485659
