19
Iteration:  3520charge 0 multiplicity 1
 C         0.040854         0.295095         0.245894
 C         1.423336        -0.183409        -0.145440
 C         1.874298        -1.647495         0.094548
 C         3.246154        -1.117615         0.561034
 O         4.094585        -1.955244         1.378275
 C         3.754630         0.200012        -0.021072
 C         3.245926         0.609736        -1.476892
 O         1.797827         0.129556        -1.524814
 C         2.581472         0.196934         0.896624
 H         0.056690         0.486873         1.383331
 H        -0.105714         1.370663        -0.013253
 H        -0.795044        -0.299203        -0.220047
 H         1.493419        -1.970530         1.057061
 H         1.806047        -2.340897        -0.677610
 H         4.995884        -1.903483         1.040450
 H         4.651607         0.636030         0.318997
 H         3.247987         1.692763        -1.435239
 H         3.824987         0.046132        -2.267253
 H         2.680859         0.982938         1.659200
