19
Iteration:  3685charge 0 multiplicity 1
 C         0.065695         0.211707         0.204934
 C         1.456569        -0.184357        -0.068224
 C         1.879585        -1.645616        -0.041198
 C         3.208418        -1.132496         0.628447
 O         4.098205        -1.887307         1.427095
 C         3.675124         0.083352        -0.101553
 C         3.205040         0.464248        -1.468290
 O         1.811416         0.390565        -1.426599
 C         2.670321         0.252305         0.909387
 H        -0.111435         0.175664         1.306857
 H        -0.198091         1.292818         0.054688
 H        -0.579460        -0.594064        -0.278400
 H         1.290295        -2.241642         0.660345
 H         1.890635        -2.117069        -0.995762
 H         4.850264        -2.051226         0.829167
 H         4.768780         0.397736         0.108940
 H         3.458337         1.483342        -1.629027
 H         3.515285        -0.180486        -2.211178
 H         2.769452         0.938582         1.752766
