19
Iteration:   260charge 0 multiplicity 1
 C        -0.044913         0.031751         0.054016
 C         1.450258         0.005694        -0.114588
 C         1.936444        -1.470252         0.088220
 C         3.302638        -1.104319         0.729842
 O         4.113169        -2.010652         1.333999
 C         3.772886         0.154504        -0.086859
 C         3.165580         0.232981        -1.507527
 O         1.801071         0.472206        -1.385206
 C         2.624034         0.374285         0.962127
 H        -0.308351        -0.336246         1.089475
 H        -0.635774         0.943745        -0.152074
 H        -0.483248        -0.788323        -0.735083
 H         1.258825        -1.906254         0.823280
 H         1.838597        -2.220472        -0.701338
 H         5.056449        -1.747932         1.470783
 H         4.851134         0.352534         0.132098
 H         3.774329         1.011228        -2.067165
 H         3.313862        -0.793825        -1.938096
 H         2.364704         1.159910         1.761630
