19
Iteration:  1200charge 0 multiplicity 1
 C        -0.059467         0.115041         0.033415
 C         1.433182        -0.145712        -0.010422
 C         1.924937        -1.549356         0.097715
 C         3.274442        -1.043232         0.655305
 O         4.216083        -1.820629         1.345275
 C         3.853379        -0.026023        -0.147388
 C         3.161112         0.270036        -1.553944
 O         1.771592         0.498520        -1.302285
 C         2.579442         0.317727         0.910158
 H        -0.624509        -0.473341         0.853919
 H        -0.114120         1.207333         0.308440
 H        -0.434641        -0.332279        -0.921564
 H         1.435528        -2.060227         0.996052
 H         1.832781        -2.166811        -0.895347
 H         3.811119        -2.501329         1.891138
 H         4.772433         0.390262         0.177730
 H         3.604795         1.207904        -2.093895
 H         3.414659        -0.692284        -2.109671
 H         2.642275         1.071097         1.654432
