19
Iteration:  2394
 C        -0.038340         0.172378         0.103549
 C         1.416709        -0.139510        -0.036338
 C         1.975783        -1.646240         0.064365
 C         3.257526        -1.068197         0.644905
 O         4.189496        -1.800494         1.331753
 C         3.738056         0.065441        -0.132695
 C         3.158561         0.235647        -1.564359
 O         1.806160         0.515999        -1.290707
 C         2.610507         0.284772         0.909152
 H        -0.257800        -0.052646         1.204540
 H        -0.151672         1.312710        -0.033577
 H        -0.577938        -0.390178        -0.636996
 H         1.392942        -2.171296         0.863989
 H         2.200824        -2.399842        -0.799098
 H         3.749547        -2.558318         1.759049
 H         4.834976         0.457499         0.133713
 H         3.538080         0.926388        -2.243905
 H         3.305080        -0.664599        -2.168947
 H         2.754250         1.000939         1.768744
