19
Iteration:   457
 C        -0.024149         0.137673         0.268038
 C         1.452282        -0.157741        -0.140842
 C         2.021475        -1.636506         0.033867
 C         3.270555        -1.114483         0.582732
 O         3.981438        -1.830769         1.448599
 C         3.752735         0.140958        -0.111119
 C         3.265949         0.329104        -1.473031
 O         1.842722         0.373026        -1.416146
 C         2.514805         0.342889         0.808935
 H        -0.145026         0.145909         1.347363
 H        -0.247803         1.164357        -0.056101
 H        -0.842340        -0.546161        -0.093675
 H         1.500589        -2.314289         0.850642
 H         2.236392        -2.241166        -0.919087
 H         4.916526        -1.886733         1.226400
 H         4.740718         0.518555         0.159055
 H         3.687131         1.305375        -1.866651
 H         3.620068        -0.339173        -2.240598
 H         2.437352         0.764314         1.814864
