19
Iteration:  3791
 C         0.228671         0.174850         0.456737
 C         1.531170        -0.144899        -0.106834
 C         1.967114        -1.754617        -0.153410
 C         3.199879        -1.152259         0.599323
 O         3.872854        -1.840451         1.558307
 C         3.777132         0.091371        -0.188397
 C         3.217277         0.478335        -1.525974
 O         1.722526         0.486159        -1.463013
 C         2.606428         0.157729         0.819254
 H         0.065712        -0.394163         1.385026
 H         0.005618         1.177139         0.345319
 H        -0.458295        -0.232531        -0.226498
 H         1.358531        -2.342877         0.663026
 H         2.175197        -2.259318        -1.139905
 H         4.782535        -1.517146         1.492164
 H         4.750160         0.617930         0.081718
 H         3.696960         1.509606        -1.818706
 H         3.439743        -0.097984        -2.474942
 H         2.453733         0.748778         1.726419
