19
Iteration:  4762charge 0 multiplicity 1
 C        -0.023315         0.190425         0.216030
 C         1.466758        -0.091457        -0.149654
 C         1.926716        -1.590246         0.088886
 C         3.270997        -1.054168         0.746214
 O         4.137279        -1.966410         1.383374
 C         3.713463         0.066064        -0.132293
 C         3.233318         0.182260        -1.642814
 O         1.779517         0.523762        -1.369744
 C         2.680234         0.366181         0.897385
 H        -0.350523        -0.093848         1.302444
 H        -0.198061         1.283748         0.108511
 H        -0.562798        -0.359925        -0.514953
 H         1.160369        -2.004340         0.831577
 H         2.130507        -2.229835        -0.905588
 H         3.658552        -2.655471         1.884759
 H         4.764084         0.451316         0.094170
 H         3.740488         0.987097        -2.173596
 H         3.206626        -0.676401        -2.250501
 H         2.710933         1.305370         1.486750
