19
Iteration:   348
 C         0.122192         0.206599         0.396229
 C         1.523382        -0.252245        -0.171473
 C         1.943572        -1.741442        -0.112666
 C         3.110048        -1.029991         0.627613
 O         3.962220        -1.756373         1.599140
 C         3.719167         0.115118        -0.129554
 C         3.269422         0.520823        -1.532335
 O         1.848104         0.208638        -1.439929
 C         2.598053         0.331168         0.741889
 H        -0.064020        -0.511889         1.219632
 H         0.236113         1.238064         0.820807
 H        -0.850988         0.073856        -0.306650
 H         1.440854        -2.470338         0.474183
 H         2.158474        -2.201644        -1.051224
 H         4.667917        -2.262026         1.114375
 H         4.664630         0.415242         0.257688
 H         3.448716         1.636616        -1.773237
 H         3.594861        -0.093717        -2.383408
 H         2.443195         0.886747         1.612009
