19
Iteration:  3764
 C        -0.068259         0.175993         0.292576
 C         1.423863        -0.098250        -0.087656
 C         1.963876        -1.615388        -0.038596
 C         3.278686        -1.130493         0.577227
 O         4.077133        -1.952509         1.432339
 C         3.709929         0.094607        -0.102525
 C         3.277682         0.340683        -1.472781
 O         1.782438         0.420091        -1.398799
 C         2.624986         0.309968         0.872638
 H        -0.361903        -0.517154         1.096918
 H        -0.033135         1.336119         0.459405
 H        -0.917586         0.028573        -0.507499
 H         1.379967        -2.267598         0.501635
 H         2.129077        -2.064327        -1.007997
 H         4.994539        -1.724130         1.205486
 H         4.682338         0.526402         0.088541
 H         3.719467         1.256690        -1.836921
 H         3.415041        -0.287350        -2.293680
 H         2.844822         1.049367         1.637514
