19
Iteration:  4136
 C         0.056657         0.152607         0.277751
 C         1.452808        -0.050626        -0.112730
 C         1.922541        -1.545946        -0.076335
 C         3.222324        -1.137763         0.651641
 O         4.127432        -1.897037         1.615989
 C         3.764560         0.027552        -0.168358
 C         3.202772         0.302582        -1.543170
 O         1.717649         0.501043        -1.410254
 C         2.649069         0.245767         0.823372
 H        -0.162003         0.006019         1.299446
 H        -0.243656         1.221667         0.037839
 H        -0.632022        -0.530209        -0.260212
 H         1.279482        -2.242969         0.443050
 H         1.962016        -2.093635        -1.102608
 H         4.731549        -2.314776         0.968567
 H         4.752962         0.302131         0.093788
 H         3.658114         1.314267        -1.935270
 H         3.416923        -0.360250        -2.424739
 H         2.604640         0.857241         1.738927
