19
Iteration:  2356
 C         0.055827         0.081807         0.363494
 C         1.517404        -0.083095        -0.137359
 C         1.979740        -1.568304        -0.065763
 C         3.274596        -1.140962         0.616139
 O         4.024660        -1.781255         1.661078
 C         3.797638         0.028944        -0.242336
 C         3.168613         0.336493        -1.674171
 O         1.746048         0.475299        -1.433979
 C         2.657201         0.254656         0.885597
 H         0.041819        -0.546582         1.241686
 H        -0.258103         1.043243         0.705916
 H        -0.905659        -0.262374        -0.308905
 H         1.115240        -2.081272         0.366725
 H         2.103070        -2.074615        -0.998721
 H         3.961079        -2.738899         1.529819
 H         4.579816         0.504874         0.126226
 H         3.534602         1.398620        -2.035136
 H         3.341923        -0.484617        -2.416793
 H         2.886463         0.980409         1.578753
