19
Iteration:  4776
 C        -0.035204         0.231571         0.076477
 C         1.428531        -0.066567        -0.007441
 C         1.876392        -1.534488         0.138839
 C         3.195667        -1.083308         0.702952
 O         4.224562        -1.864861         1.252435
 C         3.775897         0.052856        -0.143721
 C         3.169179         0.104819        -1.538993
 O         1.885105         0.491247        -1.354773
 C         2.624437         0.334206         0.956128
 H        -0.344319        -0.235918         0.996260
 H        -0.262614         1.299264         0.091412
 H        -0.733906        -0.209484        -0.636563
 H         1.319205        -2.151371         0.875347
 H         1.870921        -2.178207        -0.864717
 H         3.756968        -2.567060         1.730752
 H         4.755412         0.335347         0.083307
 H         3.613229         0.824558        -2.279979
 H         3.336490        -0.885929        -1.983017
 H         2.666944         1.037819         1.779157
