19
Iteration:   798charge 0 multiplicity 1
 C         0.062273         0.267409         0.494305
 C         1.410964        -0.232831        -0.186722
 C         2.002475        -1.686369        -0.111858
 C         3.202085        -1.098663         0.629899
 O         4.042634        -1.751038         1.459192
 C         3.739454         0.132164        -0.126305
 C         3.311013         0.502532        -1.442998
 O         1.782028         0.178190        -1.516360
 C         2.568247         0.270516         0.714326
 H         0.438197         0.118647         1.536289
 H        -0.140972         1.326694         0.227567
 H        -0.739361        -0.372738         0.241177
 H         1.276316        -2.304588         0.526389
 H         2.189252        -2.390027        -0.975544
 H         3.552468        -2.331006         2.094575
 H         4.713948         0.527321         0.234715
 H         3.667427         1.528188        -1.625100
 H         3.894256         0.014659        -2.238481
 H         2.533411         0.936070         1.598563
