19
Iteration:  3652
 C         0.112211         0.203598         0.504464
 C         1.436020        -0.271505        -0.193062
 C         2.009285        -1.683083        -0.198854
 C         3.293959        -1.149834         0.547858
 O         3.881677        -1.804555         1.667394
 C         3.747578         0.154867        -0.219391
 C         3.236536         0.510116        -1.574501
 O         1.817185         0.433026        -1.403123
 C         2.600729         0.186157         0.765979
 H         0.321309        -0.307763         1.493440
 H        -0.103737         1.306636         0.425151
 H        -0.853836        -0.248860         0.065676
 H         1.550544        -2.256532         0.586048
 H         2.043194        -2.206640        -1.089736
 H         4.252422        -2.651615         1.365551
 H         4.744418         0.545484         0.130126
 H         3.553502         1.534632        -1.748252
 H         3.491804         0.010413        -2.481671
 H         2.716250         0.568007         1.800996
