19
Iteration:  1440
 C         0.036045         0.126185         0.352137
 C         1.505870        -0.161348        -0.098337
 C         1.930742        -1.720131         0.007731
 C         3.207167        -1.091139         0.611563
 O         3.999681        -1.814203         1.540926
 C         3.795032         0.058992        -0.188632
 C         3.238973         0.363780        -1.584308
 O         1.769289         0.439307        -1.449084
 C         2.675987         0.359568         0.733897
 H         0.034369        -0.242768         1.430991
 H        -0.096428         1.269074         0.291980
 H        -0.655709        -0.294221        -0.430534
 H         1.365027        -2.442292         0.630474
 H         2.108185        -2.160927        -0.968757
 H         3.689401        -1.722539         2.456036
 H         4.883502         0.308504        -0.024879
 H         3.676810         1.329970        -1.765373
 H         3.448629        -0.311284        -2.485091
 H         2.703345         0.785351         1.747726
