19
Iteration:  4943charge 0 multiplicity 1
 C        -0.093697         0.298071         0.093859
 C         1.480937        -0.101453        -0.039499
 C         1.811855        -1.515137         0.089519
 C         3.305369        -1.125475         0.589451
 O         4.167593        -1.847073         1.321641
 C         3.843332         0.057507        -0.128604
 C         3.171672         0.155889        -1.531400
 O         1.808124         0.366104        -1.293924
 C         2.643314         0.308924         0.889034
 H        -0.486158        -0.312553         0.873447
 H        -0.058766         1.354357         0.161818
 H        -0.523888        -0.046012        -0.846844
 H         1.481795        -1.994553         1.009842
 H         1.787558        -2.313371        -0.775971
 H         3.939754        -2.033648         2.243766
 H         4.833933         0.400868         0.233092
 H         3.328004         1.077517        -2.096220
 H         3.485277        -0.672638        -2.089652
 H         2.793220         1.045582         1.658242
