19
Iteration:  2998
 C         0.069552         0.178983         0.188388
 C         1.471726        -0.109742        -0.118878
 C         1.936367        -1.631725         0.028161
 C         3.209827        -1.106792         0.669280
 O         4.134706        -1.936854         1.259701
 C         3.721994         0.175600         0.005168
 C         3.195818         0.263245        -1.472248
 O         1.753356         0.429932        -1.377341
 C         2.609192         0.325892         0.881323
 H        -0.293416        -0.173400         1.155227
 H        -0.199128         1.223449        -0.135897
 H        -0.440000        -0.501256        -0.591502
 H         1.417826        -2.254129         0.810903
 H         2.134333        -2.178604        -0.992677
 H         4.480439        -1.613861         2.110895
 H         4.665832         0.649718         0.255071
 H         3.601412         1.059402        -2.175890
 H         3.405159        -0.494404        -2.202989
 H         2.583661         0.996404         1.838028
