19
Iteration:  4720charge 0 multiplicity 1
 C         0.111269         0.176611         0.476794
 C         1.488262        -0.134996        -0.044339
 C         1.928456        -1.667106        -0.124745
 C         3.116008        -1.179282         0.544709
 O         3.906834        -1.765251         1.587923
 C         3.796798         0.097568        -0.279429
 C         3.311908         0.477572        -1.638095
 O         1.785136         0.325781        -1.431921
 C         2.730201         0.185802         0.779689
 H         0.263323         0.148889         1.565355
 H         0.062302         1.273032         0.363434
 H        -0.588924        -0.358183        -0.061496
 H         1.208089        -2.226207         0.517109
 H         1.986553        -2.274626        -1.172342
 H         3.442459        -1.677384         2.464317
 H         4.857404         0.288747         0.096839
 H         3.315650         1.591459        -1.857925
 H         3.788761        -0.202215        -2.350467
 H         2.934553         0.738950         1.722907
