19
Iteration:   222
 C        -0.015380         0.230358         0.239794
 C         1.436658        -0.201714        -0.162358
 C         2.035953        -1.660815        -0.054799
 C         3.220704        -1.030236         0.632425
 O         3.997532        -1.877640         1.489125
 C         3.779756         0.085420        -0.091361
 C         3.229025         0.388667        -1.494852
 O         1.794891         0.339022        -1.381414
 C         2.604974         0.266916         0.821982
 H        -0.214687        -0.312099         1.146694
 H        -0.026473         1.333016         0.381107
 H        -0.676488        -0.048116        -0.491966
 H         1.652614        -2.175690         0.897850
 H         2.242365        -2.246432        -0.980016
 H         4.901268        -1.536926         1.521238
 H         4.802022         0.316299         0.095682
 H         3.383272         1.389149        -1.865485
 H         3.458426        -0.269625        -2.311576
 H         2.431828         0.967852         1.560568
