19
Iteration:  2740charge 0 multiplicity 1
 C        -0.001338         0.168641         0.379554
 C         1.450795        -0.152893        -0.103401
 C         2.022451        -1.638326        -0.012818
 C         3.259752        -1.115276         0.607614
 O         4.057972        -1.797990         1.443020
 C         3.763257         0.119183        -0.173363
 C         3.239938         0.344018        -1.574481
 O         1.790933         0.352586        -1.450959
 C         2.601382         0.313855         0.841659
 H        -0.195362        -0.156707         1.440954
 H        -0.069123         1.276646         0.295428
 H        -0.784548        -0.415744        -0.176497
 H         1.355336        -2.223225         0.703481
 H         2.141327        -2.159108        -0.998167
 H         3.468129        -2.244543         2.090383
 H         4.787730         0.531400         0.117621
 H         3.564554         1.261426        -2.064597
 H         3.661838        -0.374815        -2.297494
 H         2.596875         0.911872         1.797752
