19
Iteration:   551charge 0 multiplicity 1
 C        -0.052664         0.161214         0.155922
 C         1.501512        -0.043511        -0.138398
 C         1.938433        -1.609057         0.024255
 C         3.234655        -1.074210         0.706485
 O         4.241259        -1.801746         1.413899
 C         3.712561         0.144804        -0.107735
 C         3.214498         0.213598        -1.562448
 O         1.826080         0.433545        -1.409093
 C         2.530793         0.230073         0.954847
 H        -0.300175        -0.509530         1.033841
 H        -0.165298         1.196980         0.554768
 H        -0.754234        -0.087444        -0.710252
 H         1.299237        -2.045108         0.730228
 H         2.115407        -2.231961        -0.814205
 H         3.846435        -2.707793         1.387141
 H         4.633266         0.538162         0.294575
 H         3.579944         0.982890        -2.181343
 H         3.391275        -0.716335        -2.146028
 H         2.469468         0.956013         1.745579
