19
Iteration:  4511
 C         0.056800         0.136474         0.326897
 C         1.443341        -0.082275        -0.070948
 C         1.895397        -1.567022        -0.027977
 C         3.195467        -1.178111         0.650611
 O         4.036047        -1.887073         1.571749
 C         3.784357         0.037495        -0.164031
 C         3.244233         0.412058        -1.594180
 O         1.787192         0.398157        -1.427655
 C         2.664221         0.333443         0.761545
 H        -0.356512        -0.538686         1.177548
 H        -0.198216         1.211102         0.575878
 H        -0.601539         0.023218        -0.527307
 H         1.276819        -2.140733         0.534429
 H         2.040843        -2.184197        -0.877536
 H         4.691233        -2.374370         1.042615
 H         4.726517         0.337509         0.221501
 H         3.628518         1.370120        -1.852109
 H         3.568913        -0.388561        -2.306199
 H         2.782229         1.152618         1.493979
