19
Iteration:  1984charge 0 multiplicity 1
 C         0.100983         0.071944         0.382007
 C         1.524514        -0.149450        -0.109832
 C         2.011810        -1.649378        -0.035339
 C         3.234689        -1.069116         0.605385
 O         3.911828        -1.764631         1.630947
 C         3.814453         0.047630        -0.256289
 C         3.145054         0.330888        -1.587757
 O         1.740035         0.491935        -1.388782
 C         2.728258         0.323393         0.745604
 H         0.034011        -0.331754         1.456811
 H        -0.047660         1.201943         0.286983
 H        -0.764279        -0.334538        -0.155816
 H         1.390790        -2.336401         0.654052
 H         2.098554        -2.301056        -1.007953
 H         4.033729        -2.661735         1.271214
 H         4.787559         0.325931         0.054121
 H         3.614564         1.182015        -2.044109
 H         3.396584        -0.495388        -2.380625
 H         2.447087         1.005036         1.437453
