19
Iteration:  3895
 C        -0.078114         0.312952         0.107425
 C         1.376808        -0.128767        -0.098100
 C         1.906013        -1.626289         0.090780
 C         3.323074        -1.174433         0.624781
 O         4.254623        -1.872601         1.352078
 C         3.772182         0.086335        -0.078324
 C         3.205777         0.361514        -1.488298
 O         1.764642         0.413290        -1.385036
 C         2.552657         0.225999         0.951522
 H        -0.544338        -0.009079         1.006846
 H        -0.028502         1.397849         0.330002
 H        -0.588503         0.069527        -0.848549
 H         1.387349        -2.124561         0.897131
 H         1.918014        -2.401712        -0.763811
 H         4.552911        -2.602002         0.778437
 H         4.766829         0.363542         0.137638
 H         3.497913         1.337455        -1.704866
 H         3.642873        -0.432883        -2.173012
 H         2.528773         0.814048         1.918067
