19
Iteration:  3020
 C        -0.101286         0.127542         0.250271
 C         1.453444        -0.159952        -0.108591
 C         2.013453        -1.584023        -0.048926
 C         3.263570        -1.105271         0.638035
 O         4.091115        -1.926586         1.472524
 C         3.727631         0.038971        -0.221604
 C         3.187757         0.375170        -1.547051
 O         1.836448         0.505050        -1.316798
 C         2.629535         0.241014         0.870599
 H        -0.439529        -0.046319         1.280905
 H        -0.138225         1.219003        -0.016805
 H        -0.845164        -0.502449        -0.388473
 H         1.475521        -2.244393         0.685419
 H         2.229492        -2.071727        -1.085235
 H         4.419061        -1.365850         2.196753
 H         4.737128         0.295109        -0.052459
 H         3.774911         1.215833        -2.009496
 H         3.422632        -0.328376        -2.376003
 H         2.574350         1.117667         1.649611
