19
Iteration:  4392
 C         0.107794         0.255266         0.391089
 C         1.463861        -0.180532        -0.132879
 C         1.971689        -1.619354         0.027164
 C         3.289986        -1.110376         0.534314
 O         3.838910        -1.953357         1.575329
 C         3.809294         0.113381        -0.218507
 C         3.210878         0.534243        -1.546475
 O         1.812827         0.237356        -1.480423
 C         2.652355         0.254078         0.740060
 H         0.058414        -0.210436         1.494626
 H        -0.030827         1.377820         0.629275
 H        -0.780029        -0.058378        -0.154823
 H         1.443344        -2.308281         0.710445
 H         2.015686        -2.362753        -0.839185
 H         4.760350        -1.694459         1.750440
 H         4.669144         0.655493         0.193202
 H         3.326450         1.696098        -1.553509
 H         3.490446         0.084725        -2.493889
 H         2.682278         1.050037         1.565491
