19
Iteration:  3784
 C         0.124832         0.190670         0.426508
 C         1.479503        -0.171227        -0.109629
 C         1.969046        -1.671386        -0.165007
 C         3.190846        -1.136265         0.614634
 O         3.956662        -1.868241         1.554335
 C         3.790352         0.056920        -0.158892
 C         3.229739         0.484107        -1.542375
 O         1.775916         0.461959        -1.440400
 C         2.615419         0.182451         0.805945
 H        -0.051421        -0.351191         1.347132
 H         0.014876         1.324207         0.618151
 H        -0.659568        -0.294137        -0.233968
 H         1.371917        -2.364442         0.492560
 H         1.987730        -2.262480        -1.093697
 H         4.884712        -1.595332         1.547193
 H         4.797198         0.534719         0.096521
 H         3.410792         1.477534        -1.891868
 H         3.471760        -0.229958        -2.448851
 H         2.388584         0.785768         1.656227
