19
Iteration:  4073
 C         0.056177         0.334810         0.299395
 C         1.437440        -0.104603        -0.116413
 C         1.860742        -1.639027         0.080269
 C         3.178419        -1.167389         0.616385
 O         4.101252        -1.873546         1.457584
 C         3.727461         0.166328        -0.138689
 C         3.236744         0.572296        -1.500453
 O         1.824136         0.141069        -1.529340
 C         2.638368         0.172845         0.886312
 H        -0.063992        -0.289795         1.216304
 H         0.004016         1.378796         0.356440
 H        -0.737996         0.113551        -0.367986
 H         1.366683        -2.150832         0.887349
 H         1.927654        -2.212477        -0.948456
 H         4.785275        -2.298812         0.917607
 H         4.679025         0.385943         0.175535
 H         3.207880         1.655518        -1.670231
 H         3.768930        -0.037917        -2.304040
 H         2.769021         0.892211         1.728419
