19
Iteration:  1556charge 0 multiplicity 1
 C         0.160180         0.313409         0.342082
 C         1.437487        -0.225193        -0.103076
 C         1.897743        -1.691523         0.131068
 C         3.232057        -1.058773         0.511365
 O         4.067866        -1.774719         1.426108
 C         3.762537         0.088750        -0.140940
 C         3.204519         0.516542        -1.434700
 O         1.826101         0.069701        -1.565964
 C         2.560303         0.280983         0.801930
 H         0.091532        -0.068828         1.373965
 H         0.226095         1.466517         0.418505
 H        -0.594660        -0.039512        -0.472825
 H         1.429430        -2.205113         0.986217
 H         1.706576        -2.122409        -0.875937
 H         3.549607        -1.997760         2.230199
 H         4.891136         0.287437        -0.047695
 H         3.350354         1.701382        -1.483176
 H         3.662811         0.157174        -2.360681
 H         2.468675         1.144901         1.530678
