19
Iteration:  4959charge 0 multiplicity 1
 C         0.007736         0.340049         0.108711
 C         1.450231        -0.097137         0.011439
 C         1.840811        -1.655044         0.241184
 C         3.185189        -1.120281         0.608465
 O         4.223834        -1.851276         1.321401
 C         3.693600         0.045940        -0.164356
 C         3.282846         0.350395        -1.547256
 O         1.811020         0.275120        -1.420276
 C         2.666856         0.298910         0.873305
 H        -0.545617        -0.267419         0.921197
 H        -0.111455         1.468983         0.260857
 H        -0.433838         0.106219        -0.893563
 H         1.207759        -2.065839         1.067692
 H         1.635864        -2.232021        -0.634164
 H         3.763769        -2.171038         2.138931
 H         4.738841         0.305996         0.040850
 H         3.633823         1.333278        -1.932122
 H         3.472262        -0.495120        -2.320568
 H         2.703803         1.026447         1.716456
