19
Iteration:  4623charge 0 multiplicity 1
 C        -0.093769         0.136362         0.081455
 C         1.473930        -0.028177        -0.034214
 C         1.901486        -1.558310         0.132261
 C         3.254722        -1.048817         0.688771
 O         4.113284        -2.028249         1.284729
 C         3.736481         0.121762        -0.091685
 C         3.240416         0.188142        -1.543941
 O         1.813071         0.512987        -1.366160
 C         2.624656         0.345673         0.944866
 H        -0.400775        -0.293298         1.089265
 H        -0.383106         1.225906         0.147189
 H        -0.427443        -0.463610        -0.847862
 H         1.446869        -1.921955         1.016163
 H         1.833242        -2.269832        -0.665197
 H         5.054163        -1.733674         1.357830
 H         4.846789         0.324505         0.078274
 H         3.815361         0.918740        -2.206896
 H         3.246158        -0.823914        -2.119965
 H         2.629246         1.153918         1.691477
