19
Iteration:  4505charge 0 multiplicity 1
 C        -0.007220         0.135699         0.282330
 C         1.468234        -0.074412        -0.049302
 C         1.901306        -1.568669        -0.013226
 C         3.203694        -1.184228         0.600612
 O         4.043343        -1.876093         1.527165
 C         3.752459         0.077509        -0.139938
 C         3.242878         0.328901        -1.554042
 O         1.809023         0.411944        -1.390769
 C         2.688746         0.348209         0.772457
 H        -0.363535        -0.392906         1.140530
 H        -0.105720         1.137073         0.668995
 H        -0.520948        -0.158232        -0.697077
 H         1.144568        -2.118835         0.747614
 H         1.929658        -2.065989        -1.061684
 H         4.785620        -2.287285         1.062571
 H         4.719511         0.357583         0.352777
 H         3.702698         1.292545        -2.032603
 H         3.434079        -0.454801        -2.289135
 H         2.772338         1.111953         1.510746
