19
Iteration:  2827charge 0 multiplicity 1
 C        -0.015890         0.184714         0.080928
 C         1.436465        -0.093736        -0.039418
 C         1.895764        -1.677438         0.129235
 C         3.250230        -1.096719         0.620820
 O         4.206016        -1.841221         1.315760
 C         3.754897         0.094848        -0.149777
 C         3.238103         0.363444        -1.609266
 O         1.781312         0.408182        -1.347091
 C         2.624299         0.282575         0.996730
 H        -0.523053        -0.244193         1.006487
 H        -0.128157         1.273195         0.181127
 H        -0.564614        -0.499563        -0.654391
 H         1.367611        -2.136353         0.969534
 H         1.862614        -2.225641        -0.750650
 H         3.720114        -2.291613         2.034232
 H         4.825431         0.458321        -0.036009
 H         3.489741         1.292684        -2.071258
 H         3.394135        -0.605661        -2.137460
 H         2.701334         0.969489         1.970112
