19
Iteration:  3986
 C         0.095920         0.106586         0.341112
 C         1.487056        -0.109572        -0.126268
 C         2.010792        -1.692579        -0.164491
 C         3.132037        -1.118923         0.673815
 O         3.963584        -1.783296         1.517654
 C         3.783597         0.009735        -0.163620
 C         3.184296         0.336946        -1.537932
 O         1.785896         0.543011        -1.348337
 C         2.664181         0.268456         0.828640
 H         0.057530         0.094120         1.533340
 H        -0.213950         1.183204         0.267097
 H        -0.608040        -0.544318        -0.232085
 H         1.394327        -2.315599         0.439537
 H         2.423634        -2.080267        -1.072423
 H         4.523979        -2.377588         0.993440
 H         4.812993         0.367291         0.058264
 H         3.482216         1.255211        -1.946997
 H         3.207571        -0.556449        -2.209767
 H         2.766820         0.968307         1.617348
