19
Iteration:  1240
 C         0.168339         0.202327         0.387762
 C         1.481391        -0.213408        -0.142806
 C         1.980877        -1.664321        -0.106701
 C         3.257887        -1.080774         0.634870
 O         4.044100        -1.796206         1.532038
 C         3.766496         0.113242        -0.086634
 C         3.225216         0.425362        -1.568879
 O         1.705645         0.317358        -1.548798
 C         2.580230         0.237906         0.843604
 H        -0.293610        -0.474629         1.152808
 H         0.420721         1.151161         0.856662
 H        -0.537294         0.188356        -0.484453
 H         1.405470        -2.175376         0.629282
 H         1.993467        -2.153144        -1.038288
 H         3.562323        -1.821009         2.392355
 H         4.811206         0.436930         0.156985
 H         3.410052         1.423550        -1.876285
 H         3.449475        -0.272639        -2.437312
 H         2.398973         0.859719         1.739392
