19
Iteration:  4897
 C         0.115523         0.159084         0.375218
 C         1.525075        -0.112472        -0.176904
 C         1.932910        -1.583625        -0.059508
 C         3.236526        -1.105567         0.738849
 O         4.033752        -1.824548         1.538153
 C         3.794854        -0.035446        -0.213772
 C         3.191501         0.228822        -1.634443
 O         1.754860         0.518848        -1.367502
 C         2.605089         0.359384         0.724941
 H         0.160677        -0.098783         1.380051
 H        -0.049978         1.211765         0.153529
 H        -0.709302        -0.555692        -0.028861
 H         1.257408        -2.103732         0.624800
 H         2.083534        -2.231118        -1.038401
 H         3.470852        -2.455809         2.042363
 H         4.751120         0.423962         0.165022
 H         3.804897         1.061643        -2.038268
 H         3.320292        -0.590438        -2.252276
 H         2.616899         1.065293         1.572991
