19
Iteration:  4743charge 0 multiplicity 1
 C         0.082987         0.171612         0.318353
 C         1.470525        -0.069499        -0.070000
 C         1.990506        -1.598212         0.009977
 C         3.274850        -1.101237         0.608270
 O         3.988815        -1.930432         1.518612
 C         3.822154        -0.002653        -0.200266
 C         3.141851         0.337381        -1.538182
 O         1.758158         0.454723        -1.442231
 C         2.666609         0.356109         0.733103
 H         0.168812         0.030958         1.368215
 H        -0.138395         1.232897         0.204610
 H        -0.475198        -0.513720        -0.281292
 H         1.421806        -2.170142         0.749236
 H         2.031010        -2.193923        -0.990598
 H         3.418211        -2.352509         2.173604
 H         4.785812         0.396095         0.059145
 H         3.567642         1.321794        -1.896387
 H         3.442257        -0.513764        -2.183884
 H         2.573348         1.003565         1.601201
