19
Iteration:   526
 C         0.020598         0.186918         0.203381
 C         1.495715        -0.219571        -0.065837
 C         1.892026        -1.696015         0.069039
 C         3.254985        -1.118923         0.571016
 O         4.105043        -1.702575         1.474250
 C         3.789705         0.067099        -0.159150
 C         3.221334         0.424727        -1.486640
 O         1.759342         0.345555        -1.419456
 C         2.651827         0.261966         0.796509
 H        -0.595334        -0.471345         0.928581
 H         0.042528         1.256576         0.663925
 H        -0.401796         0.186913        -0.788281
 H         1.405153        -2.311440         0.785727
 H         1.963683        -2.245912        -0.882998
 H         3.507602        -2.435792         1.785555
 H         4.778350         0.218266         0.277784
 H         3.474547         1.478150        -1.740937
 H         3.589393        -0.094855        -2.275354
 H         2.636618         1.008555         1.593354
