19
Iteration:  1096
 C         0.064676         0.167541         0.372869
 C         1.470312        -0.193281        -0.145914
 C         1.953410        -1.798772        -0.028309
 C         3.212102        -1.070959         0.606878
 O         4.027813        -1.709694         1.573092
 C         3.878004        -0.034951        -0.218915
 C         3.183694         0.588282        -1.519705
 O         1.781140         0.313104        -1.469047
 C         2.606322         0.267259         0.743880
 H         0.102377        -0.081907         1.406279
 H         0.135725         1.257583         0.183824
 H        -0.754246        -0.217194        -0.284554
 H         1.388532        -2.151449         0.773052
 H         1.911041        -2.408353        -0.858082
 H         3.585020        -2.553131         1.769887
 H         4.742145         0.461526         0.110050
 H         3.439355         1.601339        -1.348887
 H         3.582485         0.331638        -2.472976
 H         2.643778         0.751753         1.687563
