19
Iteration:  3193
 C         0.063371         0.157998         0.294580
 C         1.457416        -0.177339        -0.106214
 C         1.952667        -1.636577        -0.025105
 C         3.264560        -1.097892         0.538769
 O         3.977579        -1.826350         1.414484
 C         3.800211         0.222486        -0.106000
 C         3.248881         0.483328        -1.505006
 O         1.829231         0.272596        -1.343578
 C         2.564869         0.219017         0.829970
 H         0.036972         0.132094         1.399819
 H        -0.155370         1.236943         0.125209
 H        -0.704094        -0.378277        -0.263653
 H         1.572485        -2.186871         0.752918
 H         1.928010        -2.214929        -0.934904
 H         4.190108        -2.634680         0.922632
 H         4.675696         0.429575         0.330574
 H         3.445702         1.564512        -1.599957
 H         3.599841        -0.282231        -2.244118
 H         2.418041         0.890192         1.690366
