19
Iteration:  1111
 C         0.150941         0.254652         0.351371
 C         1.510999        -0.189340        -0.128975
 C         1.979769        -1.742081        -0.036448
 C         3.244825        -1.226228         0.554658
 O         4.029721        -1.734095         1.601728
 C         3.685587         0.104004        -0.196647
 C         3.193493         0.595629        -1.480468
 O         1.761870         0.279563        -1.504219
 C         2.648116         0.216082         0.786368
 H         0.156641         0.230057         1.512960
 H        -0.209742         1.203337        -0.089207
 H        -0.634131        -0.500708        -0.010966
 H         1.362769        -2.442879         0.662946
 H         2.085710        -2.392662        -1.034494
 H         3.556091        -2.503180         1.931168
 H         4.742794         0.332104         0.117788
 H         3.193008         1.769733        -1.586505
 H         3.645091         0.143598        -2.455519
 H         2.614874         1.028316         1.556084
