19
Iteration:  1745charge 0 multiplicity 1
 C         0.113172         0.230754         0.132569
 C         1.469795        -0.190722        -0.061298
 C         1.869339        -1.672860         0.118914
 C         3.187957        -1.122332         0.647713
 O         4.190626        -1.823305         1.392173
 C         3.788718         0.059181        -0.156832
 C         3.164367         0.476329        -1.526217
 O         1.762476         0.279938        -1.401908
 C         2.615566         0.255997         0.820577
 H        -0.347254         0.209645         1.137375
 H         0.137191         1.313641         0.140971
 H        -0.539103        -0.192246        -0.605098
 H         1.359233        -1.991156         0.999983
 H         1.919379        -2.377267        -0.687309
 H         3.766049        -2.120264         2.221597
 H         4.726448         0.428916         0.245802
 H         3.337909         1.595443        -1.668238
 H         3.423432        -0.046155        -2.420547
 H         2.606710         1.175698         1.445765
