19
Iteration:  4144charge 0 multiplicity 1
 C         0.040843         0.093758         0.266483
 C         1.482333        -0.049334        -0.127542
 C         1.880471        -1.517673        -0.061294
 C         3.248147        -1.149129         0.651525
 O         4.101632        -1.871377         1.564361
 C         3.758636        -0.007433        -0.163911
 C         3.211914         0.290395        -1.541899
 O         1.760907         0.536512        -1.385805
 C         2.656787         0.280982         0.841239
 H        -0.077606        -0.312199         1.323008
 H        -0.436991         1.128613         0.009086
 H        -0.621849        -0.604362        -0.393178
 H         1.231754        -2.103098         0.623283
 H         2.013067        -1.912047        -0.993755
 H         4.571066        -2.423677         0.910000
 H         4.741463         0.438900         0.213985
 H         3.573173         1.154614        -1.970227
 H         3.203870        -0.584595        -2.141153
 H         2.792860         1.033878         1.561038
