19
Iteration:  1719
 C         0.034286         0.423502         0.223963
 C         1.375749        -0.210645        -0.124771
 C         1.859077        -1.764426         0.013971
 C         3.148781        -1.182678         0.583424
 O         4.291586        -1.709185         1.467296
 C         3.717960         0.021982        -0.173716
 C         3.205429         0.571991        -1.456873
 O         1.801070         0.136269        -1.506037
 C         2.667257         0.182862         0.877478
 H        -0.273907         0.480794         1.271935
 H         0.197563         1.586358         0.160246
 H        -0.894426         0.090794        -0.400338
 H         1.356313        -2.147859         0.911139
 H         1.982731        -2.508528        -0.800776
 H         3.876799        -1.657225         2.346372
 H         4.747125         0.134569         0.143649
 H         3.281892         1.630874        -1.389313
 H         3.593221         0.198103        -2.442145
 H         2.695172         0.583031         1.850690
