19
Iteration:  1723
 C         0.066408         0.423278         0.196416
 C         1.383088        -0.202136        -0.115079
 C         1.858110        -1.779538         0.054494
 C         3.171375        -1.175260         0.585828
 O         4.285417        -1.712840         1.463152
 C         3.657726        -0.000769        -0.176395
 C         3.215099         0.568428        -1.460200
 O         1.796257         0.159402        -1.512658
 C         2.682270         0.182238         0.870362
 H        -0.322421         0.467275         1.249517
 H         0.103317         1.497580         0.196912
 H        -0.740582         0.011280        -0.365159
 H         1.326987        -2.220822         0.881079
 H         1.968786        -2.403512        -0.820340
 H         3.897759        -1.693416         2.359263
 H         4.681183         0.148602         0.084423
 H         3.304081         1.716531        -1.372659
 H         3.574703         0.227732        -2.397807
 H         2.638710         0.644427         1.864692
