19
Iteration:  1198
 C        -0.064790         0.114059         0.017185
 C         1.443083        -0.124464        -0.009872
 C         1.915205        -1.553378         0.114989
 C         3.266619        -1.051674         0.644902
 O         4.223731        -1.817427         1.334283
 C         3.832819        -0.024421        -0.136143
 C         3.154332         0.272248        -1.542820
 O         1.777050         0.501892        -1.316089
 C         2.589904         0.310823         0.916543
 H        -0.588771        -0.483970         0.863910
 H        -0.088030         1.167940         0.288347
 H        -0.395514        -0.425287        -0.898205
 H         1.446047        -2.046539         0.959551
 H         1.892020        -2.103595        -0.823827
 H         3.840573        -2.523470         1.877354
 H         4.809806         0.363497         0.226112
 H         3.611540         1.129640        -2.098443
 H         3.310065        -0.684880        -2.056184
 H         2.650288         1.096488         1.678534
