19
Iteration:  1459
 C         0.017637         0.092894         0.325200
 C         1.504499        -0.079937        -0.146019
 C         1.939814        -1.506011        -0.070939
 C         3.252933        -1.056427         0.663667
 O         4.081511        -1.837178         1.442076
 C         3.713898         0.040621        -0.119922
 C         3.212116         0.228954        -1.595133
 O         1.838679         0.460120        -1.383530
 C         2.562082         0.243527         0.855657
 H         0.125142        -0.257758         1.293213
 H        -0.268618         1.116168         0.132183
 H        -0.589107        -0.478172        -0.422031
 H         1.268451        -1.965816         0.742786
 H         2.063519        -2.252027        -0.921472
 H         3.987862        -1.805318         2.417194
 H         4.692790         0.411043         0.193113
 H         3.640839         0.983911        -2.256045
 H         3.347133        -0.749660        -2.049391
 H         2.715109         1.220603         1.346598
