19
Iteration:  2959charge 0 multiplicity 1
 C        -0.053058         0.214283         0.203357
 C         1.441436        -0.122681        -0.028609
 C         1.942270        -1.665387         0.083838
 C         3.224242        -1.069414         0.633543
 O         4.168019        -1.975425         1.256973
 C         3.730900         0.146577        -0.108034
 C         3.270364         0.411139        -1.494083
 O         1.835510         0.287047        -1.359670
 C         2.573783         0.328709         0.812377
 H        -0.481254        -0.177354         1.169274
 H        -0.299032         1.320534         0.194948
 H        -0.534167         0.014641        -0.755437
 H         1.372755        -2.281313         0.819770
 H         1.967667        -2.182857        -0.807963
 H         4.291273        -1.595497         2.145751
 H         4.536426         0.647546         0.374172
 H         3.565305         1.424787        -1.792635
 H         3.596556        -0.436188        -2.150570
 H         2.515114         1.098557         1.575710
