19
Iteration:  1973charge 0 multiplicity 1
 C         0.024703         0.122835         0.320408
 C         1.455831        -0.099102        -0.116080
 C         2.047031        -1.665235        -0.017891
 C         3.269917        -1.108815         0.681065
 O         4.008126        -1.798660         1.630107
 C         3.806982         0.041040        -0.248144
 C         3.184052         0.288680        -1.648502
 O         1.738221         0.560654        -1.400387
 C         2.640780         0.273242         0.776940
 H        -0.027461        -0.178392         1.433463
 H        -0.261964         1.228534         0.420262
 H        -0.609042        -0.507013        -0.300079
 H         1.422122        -2.252869         0.753977
 H         2.271311        -2.164734        -1.051554
 H         3.958341        -2.748419         1.379133
 H         4.654186         0.639985        -0.054573
 H         3.546426         1.162389        -2.145256
 H         3.131259        -0.688561        -2.284192
 H         2.960610         0.847230         1.570645
