19
Iteration:  2100
 C        -0.184303         0.135942         0.126083
 C         1.409333        -0.030822        -0.032607
 C         1.970521        -1.591499         0.118014
 C         3.264985        -1.007830         0.678176
 O         4.171039        -1.948696         1.366515
 C         3.809325         0.098600        -0.145659
 C         3.267448         0.231556        -1.519084
 O         1.812209         0.473861        -1.339504
 C         2.607776         0.309148         0.855071
 H        -0.349777        -0.235081         1.142767
 H        -0.420197         1.216702        -0.036356
 H        -0.616217        -0.433669        -0.643619
 H         1.478866        -1.961029         1.002493
 H         1.871788        -2.290825        -0.614388
 H         4.359992        -2.610552         0.691482
 H         4.801116         0.302414         0.129595
 H         3.643595         1.123315        -2.157015
 H         3.385024        -0.618938        -2.142734
 H         2.517868         1.120211         1.608773
