19
Iteration:  2901
 C         0.051714         0.172007         0.380555
 C         1.421800        -0.192918        -0.154584
 C         1.956313        -1.736954        -0.087076
 C         3.272298        -1.096120         0.514253
 O         4.037681        -1.762398         1.543055
 C         3.858821         0.033637        -0.182018
 C         3.219539         0.398996        -1.510146
 O         1.756729         0.437410        -1.347506
 C         2.670941         0.268467         0.740545
 H        -0.170236        -0.225197         1.359860
 H         0.024218         1.240154         0.421876
 H        -0.772159        -0.426728        -0.178728
 H         1.473282        -2.359511         0.721798
 H         1.927187        -2.179208        -1.144528
 H         3.285069        -2.017180         2.115983
 H         4.829081         0.376533         0.261135
 H         3.519607         1.467838        -1.792128
 H         3.416105        -0.153218        -2.493430
 H         2.487018         1.061262         1.543705
