19
Iteration:  4956charge 0 multiplicity 1
 C         0.012416         0.326503         0.088593
 C         1.426629        -0.077453         0.014341
 C         1.833629        -1.637159         0.232819
 C         3.218113        -1.130352         0.590188
 O         4.223530        -1.849882         1.320061
 C         3.709718         0.064336        -0.156136
 C         3.277882         0.320281        -1.563614
 O         1.806256         0.282521        -1.385191
 C         2.666841         0.287939         0.887212
 H        -0.581439        -0.182291         0.891109
 H        -0.210639         1.367151         0.284387
 H        -0.434858         0.121025        -0.820089
 H         1.218106        -2.055167         1.066372
 H         1.634945        -2.258861        -0.742437
 H         3.723890        -2.085878         2.126027
 H         4.731029         0.215890         0.052595
 H         3.684193         1.247312        -1.941038
 H         3.504318        -0.473692        -2.254511
 H         2.662101         1.078528         1.621366
