19
Iteration:  2544charge 0 multiplicity 1
 C        -0.120234         0.066941         0.266257
 C         1.416080        -0.117649        -0.113360
 C         1.948652        -1.541954         0.046105
 C         3.258268        -1.034980         0.611534
 O         4.152963        -1.899532         1.369192
 C         3.798760         0.149630        -0.120981
 C         3.320450         0.115812        -1.582359
 O         1.792292         0.566529        -1.401066
 C         2.608081         0.345815         0.875219
 H        -0.146091        -0.423082         1.241479
 H        -0.377604         1.100990         0.360886
 H        -0.785065        -0.493107        -0.388320
 H         1.397291        -2.207044         0.719735
 H         2.079361        -2.132006        -0.883770
 H         3.899973        -2.108280         2.280181
 H         4.797993         0.512639         0.250193
 H         3.628998         0.909140        -2.272257
 H         3.157534        -0.906203        -1.852694
 H         2.610205         1.032368         1.623026
