19
Iteration:  1697charge 0 multiplicity 1
 C         0.108828         0.422888         0.266363
 C         1.421248        -0.234799        -0.087799
 C         1.863879        -1.728925         0.047324
 C         3.308038        -1.108800         0.555212
 O         4.138595        -1.757506         1.413505
 C         3.731139         0.123988        -0.137372
 C         3.221528         0.483205        -1.472733
 O         1.816881         0.113168        -1.449989
 C         2.585440         0.178926         0.794220
 H        -0.172241         0.302576         1.302187
 H         0.031626         1.533982         0.323092
 H        -0.775112        -0.051921        -0.273119
 H         1.426965        -2.308412         0.849174
 H         1.809781        -2.153930        -0.955345
 H         3.687588        -1.844928         2.278604
 H         4.662253         0.586905         0.222194
 H         3.308692         1.546902        -1.618134
 H         3.606273        -0.055822        -2.359357
 H         2.394875         0.850409         1.587282
