19
Iteration:  4898
 C         0.121722         0.158744         0.364798
 C         1.519814        -0.106968        -0.175261
 C         1.941885        -1.585919        -0.056196
 C         3.231870        -1.104300         0.747425
 O         4.041698        -1.830259         1.531548
 C         3.792736        -0.037400        -0.203128
 C         3.177114         0.226805        -1.643273
 O         1.763510         0.521427        -1.367224
 C         2.600811         0.361795         0.735266
 H         0.129928        -0.091406         1.381608
 H        -0.059444         1.204467         0.162090
 H        -0.704180        -0.542835        -0.042417
 H         1.248658        -2.086043         0.638286
 H         2.090939        -2.246582        -1.090581
 H         3.469688        -2.440343         2.040869
 H         4.759665         0.440085         0.182446
 H         3.799112         1.039285        -2.068340
 H         3.281922        -0.621455        -2.267399
 H         2.611686         1.090910         1.563095
