19
Iteration:   947
 C         0.197730         0.246270         0.328385
 C         1.540893        -0.154448        -0.149433
 C         1.990992        -1.745013         0.045451
 C         3.251475        -1.123093         0.624625
 O         3.975214        -1.848090         1.546397
 C         3.774885         0.174674        -0.167513
 C         3.123486         0.578861        -1.548154
 O         1.707730         0.210210        -1.561547
 C         2.649959         0.267067         0.788984
 H         0.316038         0.179871         1.413846
 H        -0.090824         1.268997         0.120844
 H        -0.407998        -0.628591         0.016341
 H         1.487502        -2.472931         0.731978
 H         2.020410        -2.080623        -1.033036
 H         3.361822        -2.460135         2.001618
 H         4.662508         0.618834         0.224379
 H         3.231941         1.637125        -1.319555
 H         3.719389         0.132423        -2.311191
 H         2.558353         0.823328         1.683544
