19
Iteration:  2541
 C        -0.103661         0.069252         0.275606
 C         1.430449        -0.142522        -0.105575
 C         1.952576        -1.508917         0.028267
 C         3.265106        -1.025849         0.621882
 O         4.147217        -1.883633         1.369474
 C         3.798173         0.125988        -0.080123
 C         3.323462         0.121908        -1.585268
 O         1.772889         0.571273        -1.416457
 C         2.608398         0.313144         0.857093
 H        -0.086262        -0.432330         1.211500
 H        -0.414839         1.084862         0.377063
 H        -0.833004        -0.432744        -0.466806
 H         1.331464        -2.232851         0.742044
 H         2.006601        -2.105118        -0.893129
 H         3.913788        -2.133934         2.276377
 H         4.824531         0.598544         0.212779
 H         3.587829         0.853314        -2.379406
 H         3.152574        -0.958667        -1.870569
 H         2.649486         1.081424         1.757306
