19
Iteration:  1034charge 0 multiplicity 1
 C        -0.109615         0.162086         0.096927
 C         1.412941        -0.095864        -0.065896
 C         2.101094        -1.672173         0.022360
 C         3.283518        -1.040236         0.670695
 O         4.218877        -1.856642         1.283893
 C         3.668030         0.194796        -0.093369
 C         3.195157         0.108593        -1.445520
 O         1.825764         0.480792        -1.328893
 C         2.575792         0.374330         0.931438
 H        -0.703962        -0.396404         0.776169
 H        -0.210433         1.100675         0.555671
 H        -0.715104         0.046657        -0.796042
 H         1.512462        -2.223147         0.847358
 H         2.138893        -2.322620        -0.971212
 H         3.653531        -2.488012         1.760872
 H         4.645317         0.492103         0.174930
 H         3.536791         0.860178        -2.228693
 H         3.261071        -0.950179        -1.867662
 H         2.795471         1.275301         1.436036
