19
Iteration:  4489
 C         0.005900         0.185987         0.164820
 C         1.440654        -0.089952        -0.054168
 C         1.892531        -1.583432         0.022217
 C         3.261561        -1.061243         0.596708
 O         4.027375        -1.848363         1.395808
 C         3.809660         0.097200        -0.138570
 C         3.207390         0.176117        -1.545277
 O         1.829025         0.482346        -1.320107
 C         2.638986         0.267950         0.940467
 H        -0.371425        -0.461681         1.063788
 H        -0.393045         1.239185         0.244419
 H        -0.603341        -0.125799        -0.671853
 H         1.472056        -2.146329         0.756192
 H         1.799611        -2.243182        -0.818145
 H         4.877274        -2.006906         0.940726
 H         4.834276         0.443318        -0.052076
 H         3.654545         0.963147        -2.073026
 H         3.429875        -0.822197        -1.958131
 H         2.655940         0.862504         1.893920
