19
Iteration:  3182charge 0 multiplicity 1
 C         0.039393         0.172818         0.198994
 C         1.456069        -0.206298        -0.070579
 C         1.932965        -1.651965         0.047694
 C         3.207070        -1.049399         0.550254
 O         4.024582        -1.854635         1.352468
 C         3.751126         0.130318        -0.092431
 C         3.243582         0.475298        -1.417464
 O         1.821169         0.298907        -1.374092
 C         2.633366         0.324367         0.877894
 H        -0.150031        -0.030139         1.277011
 H        -0.161016         1.215411        -0.119648
 H        -0.646547        -0.556324        -0.241218
 H         1.455783        -2.150944         0.816656
 H         1.972441        -2.231919        -0.855134
 H         4.451952        -2.546682         0.804645
 H         4.717827         0.317498         0.098087
 H         3.409097         1.485891        -1.784035
 H         3.718138        -0.060531        -2.266673
 H         2.675073         0.858016         1.852092
