19
Iteration:  2378
 C         0.014560         0.089179         0.250252
 C         1.512806        -0.128536        -0.054213
 C         1.975587        -1.653146        -0.036277
 C         3.200409        -1.101606         0.605764
 O         4.104551        -1.722220         1.475159
 C         3.785037         0.049568        -0.185696
 C         3.162634         0.216611        -1.539847
 O         1.764569         0.546354        -1.293814
 C         2.698825         0.327324         0.823131
 H        -0.483624        -0.305037         1.122508
 H        -0.187702         1.129867         0.081305
 H        -0.597500        -0.228017        -0.739167
 H         1.427845        -2.347718         0.629769
 H         1.837730        -2.120813        -0.981034
 H         3.760369        -2.638923         1.557301
 H         4.788819         0.142427        -0.070841
 H         3.719740         1.152471        -2.020184
 H         3.207372        -0.731034        -2.149480
 H         2.570515         0.933114         1.685380
