19
Iteration:   743charge 0 multiplicity 1
 C        -0.102353         0.103699         0.067912
 C         1.415903        -0.073052         0.030111
 C         1.937573        -1.655189         0.094724
 C         3.323113        -1.089405         0.601627
 O         4.191022        -1.834497         1.404344
 C         3.808093         0.023132        -0.160401
 C         3.166973         0.309554        -1.620967
 O         1.812757         0.531429        -1.316519
 C         2.610341         0.298365         0.893544
 H        -0.568975        -0.563902         0.829819
 H        -0.489328         1.153245         0.052412
 H        -0.482944        -0.362416        -0.792195
 H         1.320279        -2.308187         0.845165
 H         2.067650        -2.192401        -0.927374
 H         3.737226        -1.956501         2.253834
 H         4.863972         0.296988         0.124554
 H         3.749548         1.191545        -1.927645
 H         3.213184        -0.695404        -2.104377
 H         2.762060         1.039840         1.728232
