19
Iteration:   203charge 0 multiplicity 1
 C         0.118349         0.258352         0.304942
 C         1.471555        -0.179717        -0.098946
 C         1.965348        -1.767979        -0.069826
 C         3.268533        -1.161398         0.646370
 O         4.023595        -1.830828         1.633988
 C         3.687052         0.075261        -0.137171
 C         3.205947         0.525283        -1.534958
 O         1.747645         0.314514        -1.540551
 C         2.621073         0.220275         0.829257
 H        -0.187760        -0.279117         1.267065
 H         0.306975         1.372308         0.437207
 H        -0.659065         0.018229        -0.569550
 H         1.089389        -2.409751         0.240942
 H         2.162841        -2.070778        -1.087934
 H         4.895133        -1.451943         1.737863
 H         4.544641         0.679436         0.096318
 H         3.510637         1.642077        -1.734042
 H         3.573289        -0.011550        -2.442826
 H         2.504168         0.867594         1.653670
