19
Iteration:  4503
 C        -0.024996         0.144011         0.258180
 C         1.486234        -0.076445        -0.046350
 C         1.893899        -1.584040        -0.006313
 C         3.215911        -1.171268         0.588261
 O         4.041081        -1.870597         1.507583
 C         3.751284         0.085373        -0.132749
 C         3.247458         0.302885        -1.543493
 O         1.815015         0.421373        -1.379963
 C         2.689197         0.347944         0.790182
 H        -0.375268        -0.450479         1.190215
 H        -0.096559         1.171547         0.656095
 H        -0.523771        -0.198327        -0.721825
 H         1.201721        -2.071233         0.742655
 H         1.869889        -1.985972        -1.039114
 H         4.807741        -2.247304         1.058783
 H         4.670183         0.354593         0.300400
 H         3.646586         1.162348        -2.040205
 H         3.386834        -0.457146        -2.254552
 H         2.745771         1.079505         1.544383
