19
Iteration:   472
 C         0.137906         0.186652         0.279183
 C         1.499913        -0.227568        -0.147783
 C         1.963402        -1.694362        -0.019168
 C         3.217533        -1.050184         0.639586
 O         3.946552        -1.878237         1.504037
 C         3.728429         0.154525        -0.128629
 C         3.223257         0.510315        -1.543566
 O         1.794920         0.261730        -1.459046
 C         2.591095         0.256723         0.839500
 H         0.128567        -0.001999         1.409705
 H        -0.072223         1.309104         0.090439
 H        -0.576552        -0.425932        -0.267525
 H         1.459878        -2.158681         0.733696
 H         1.977684        -2.340086        -0.876243
 H         4.787530        -1.379494         1.663777
 H         4.702368         0.561563         0.219261
 H         3.347883         1.566202        -1.763208
 H         3.665581        -0.120646        -2.301744
 H         2.509884         0.958503         1.704375
