19
Iteration:  2301
 C         0.075164         0.271862         0.388395
 C         1.465606        -0.168700        -0.072344
 C         1.952088        -1.630917        -0.038181
 C         3.268492        -1.111990         0.544974
 O         4.014606        -1.815237         1.579219
 C         3.746258         0.100114        -0.186539
 C         3.184138         0.393674        -1.554815
 O         1.765301         0.328782        -1.498844
 C         2.609738         0.203949         0.846795
 H        -0.052972        -0.070116         1.413570
 H        -0.083290         1.350489         0.338502
 H        -0.697238        -0.295787        -0.371850
 H         1.298147        -2.242825         0.633609
 H         1.941466        -2.127745        -1.001734
 H         4.943539        -1.844637         1.265312
 H         4.744931         0.343968         0.038210
 H         3.632626         1.379791        -1.964537
 H         3.717040        -0.251745        -2.260635
 H         2.591846         0.593540         1.851271
