19
Iteration:  1930
 C        -0.036502         0.224655         0.107742
 C         1.478952        -0.133259        -0.067866
 C         1.887011        -1.645778         0.106135
 C         3.182916        -1.071776         0.628000
 O         4.190853        -1.748688         1.272823
 C         3.741161         0.094367        -0.132848
 C         3.229141         0.188540        -1.504392
 O         1.789453         0.408477        -1.277607
 C         2.683812         0.315714         0.916218
 H        -0.494208        -0.039256         1.129906
 H        -0.208135         1.342212        -0.084308
 H        -0.306198        -0.458747        -0.702070
 H         1.375269        -2.212276         0.945120
 H         2.029681        -2.295845        -0.817220
 H         3.742393        -2.553657         1.611464
 H         4.691098         0.328415         0.284024
 H         3.556963         1.095934        -2.015757
 H         3.385589        -0.717836        -2.197250
 H         2.691237         1.043779         1.653546
