19
Iteration:  2953
 C        -0.016928         0.228612         0.186024
 C         1.443509        -0.120227        -0.029876
 C         1.958693        -1.681495         0.066082
 C         3.218188        -1.088173         0.644903
 O         4.160273        -1.954679         1.287433
 C         3.723526         0.116703        -0.128617
 C         3.224947         0.438447        -1.410768
 O         1.794441         0.285361        -1.381542
 C         2.613829         0.322617         0.801667
 H        -0.375626        -0.279393         1.076725
 H        -0.222234         1.345650         0.238830
 H        -0.580736        -0.034897        -0.741260
 H         1.270811        -2.109799         0.790077
 H         2.038664        -2.283993        -0.920119
 H         4.295727        -1.598233         2.191127
 H         4.760953         0.534411         0.196824
 H         3.550309         1.399108        -1.867298
 H         3.625221        -0.219448        -2.193007
 H         2.515478         1.095579         1.542750
