19
Iteration:   462charge 0 multiplicity 1
 C         0.058508         0.156335         0.273337
 C         1.430328        -0.173006        -0.162058
 C         2.041525        -1.658570         0.044799
 C         3.218024        -1.072969         0.569534
 O         3.959185        -1.852942         1.468829
 C         3.713700         0.145406        -0.124054
 C         3.238664         0.373908        -1.491420
 O         1.853386         0.330490        -1.415316
 C         2.570240         0.307928         0.805466
 H        -0.070237         0.037496         1.404995
 H        -0.192627         1.220255        -0.061717
 H        -0.730143        -0.482901        -0.087064
 H         1.520990        -2.168768         0.754644
 H         2.170709        -2.192475        -0.861658
 H         4.935611        -1.681811         1.372745
 H         4.681701         0.551859         0.210362
 H         3.556934         1.402286        -1.678318
 H         3.635140        -0.258986        -2.342863
 H         2.372920         0.728668         1.808057
