19
Iteration:  2160
 C         0.030852         0.232876         0.480594
 C         1.407261        -0.190603        -0.101251
 C         2.009400        -1.723595        -0.175330
 C         3.321957        -1.222087         0.553994
 O         3.866260        -1.663400         1.689416
 C         3.782757         0.051344        -0.310376
 C         3.219638         0.443120        -1.504430
 O         1.802886         0.455873        -1.471078
 C         2.675606         0.087081         0.759510
 H        -0.070416        -0.044755         1.536652
 H         0.100478         1.303078         0.647552
 H        -1.041559        -0.095159         0.076402
 H         1.665400        -2.595393         0.472787
 H         2.211886        -2.061682        -1.333499
 H         4.643341        -2.209043         1.444636
 H         4.765550         0.410166         0.148312
 H         3.516337         1.491488        -1.726588
 H         3.625679        -0.195287        -2.413559
 H         2.637964         0.930406         1.587048
