19
Iteration:  4250charge 0 multiplicity 1
 C         0.117739         0.304039         0.307660
 C         1.490481        -0.190911        -0.101904
 C         1.828314        -1.678345         0.057344
 C         3.266111        -1.202311         0.475432
 O         4.012586        -1.811805         1.532770
 C         3.727170         0.108393        -0.116518
 C         3.202861         0.536830        -1.493856
 O         1.826984         0.278757        -1.498508
 C         2.596792         0.186617         0.789250
 H         0.183815         0.135423         1.395924
 H         0.165288         1.349127         0.252036
 H        -0.658114        -0.187662        -0.189570
 H         1.368727        -2.170352         0.985971
 H         1.608083        -2.365416        -0.873968
 H         4.933686        -1.881645         1.259364
 H         4.665836         0.506601         0.410279
 H         3.577621         1.596777        -1.835390
 H         3.685356        -0.038208        -2.342038
 H         2.416895         0.554588         1.740688
