19
Iteration:  2484charge 0 multiplicity 1
 C         0.055498         0.287232         0.270591
 C         1.446839        -0.176119        -0.113675
 C         1.967379        -1.675015         0.032085
 C         3.312149        -1.179221         0.576576
 O         4.130843        -1.786425         1.541624
 C         3.792036         0.029120        -0.211617
 C         3.158999         0.484901        -1.496911
 O         1.724975         0.304892        -1.470258
 C         2.602030         0.221436         0.794909
 H        -0.255033        -0.104370         1.269917
 H        -0.030873         1.391068         0.409131
 H        -0.693282        -0.066703        -0.451165
 H         1.418713        -2.094373         0.935378
 H         2.153103        -2.415258        -0.775399
 H         3.526400        -2.412702         2.003337
 H         4.653259         0.531540         0.007798
 H         3.397748         1.561835        -1.554130
 H         3.594113         0.209376        -2.462545
 H         2.668431         0.938786         1.611907
