19
Iteration:  3888
 C        -0.087584         0.287854         0.102167
 C         1.393611        -0.149346        -0.062484
 C         1.917025        -1.680303         0.117277
 C         3.305096        -1.131713         0.550212
 O         4.254043        -1.873364         1.340103
 C         3.673259         0.089274        -0.096945
 C         3.231433         0.308141        -1.451055
 O         1.848363         0.480207        -1.390775
 C         2.555449         0.229255         0.991156
 H        -0.594087        -0.174750         1.111588
 H        -0.130673         1.414441         0.136169
 H        -0.765193         0.146913        -0.789801
 H         1.465803        -2.051517         1.036545
 H         1.864421        -2.236762        -0.778504
 H         4.563573        -2.595157         0.769233
 H         4.788626         0.318869         0.147535
 H         3.522176         1.353990        -1.901306
 H         3.412822        -0.574177        -2.096822
 H         2.521548         1.001303         1.741336
