19
Iteration:  4651
 C        -0.043450         0.196579         0.079659
 C         1.478413        -0.102945        -0.002067
 C         1.914150        -1.539961         0.047473
 C         3.279145        -1.060447         0.626185
 O         4.050229        -1.983019         1.328763
 C         3.760159         0.167493        -0.151050
 C         3.221015         0.250729        -1.552781
 O         1.784300         0.373620        -1.275942
 C         2.707749         0.319781         0.903581
 H        -0.546976        -0.278224         0.920918
 H        -0.234502         1.235056         0.319524
 H        -0.437463        -0.048815        -0.889095
 H         1.430888        -2.156221         0.899329
 H         1.768432        -2.269493        -0.841174
 H         4.534767        -1.563191         2.071533
 H         4.754834         0.425886         0.063251
 H         3.584592         1.089576        -2.168103
 H         3.294003        -0.668277        -2.022146
 H         2.833437         0.955881         1.754380
