19
Iteration:  1126charge 0 multiplicity 1
 C         0.087910         0.209484         0.296070
 C         1.454779        -0.232626        -0.145628
 C         1.961856        -1.648368        -0.057055
 C         3.224668        -1.096944         0.671484
 O         4.090693        -1.825177         1.510859
 C         3.815668         0.156021        -0.128589
 C         3.158291         0.539158        -1.606699
 O         1.778548         0.269201        -1.433244
 C         2.610666         0.190899         0.839008
 H         0.081656         0.565792         1.337470
 H        -0.044111         1.193790        -0.199534
 H        -0.726165        -0.466805         0.259827
 H         1.283949        -2.265583         0.574363
 H         2.101429        -2.013988        -1.072844
 H         3.558139        -2.438598         2.063969
 H         4.795483         0.468305         0.156894
 H         3.397086         1.606077        -1.840045
 H         3.595366        -0.091703        -2.356582
 H         2.428039         0.670615         1.773321
