19
Iteration:  1296
 C         0.057187         0.094508         0.226194
 C         1.487088        -0.096029        -0.141379
 C         1.946603        -1.600347        -0.010439
 C         3.270043        -1.127571         0.623680
 O         4.083152        -1.835423         1.515728
 C         3.753515         0.062300        -0.172914
 C         3.159391         0.381494        -1.522188
 O         1.795108         0.428532        -1.357746
 C         2.657527         0.276373         0.783125
 H         0.172797         0.088594         1.387027
 H        -0.455769         1.044083        -0.178906
 H        -0.654211        -0.668154        -0.281908
 H         1.315009        -2.075291         0.728583
 H         1.889339        -2.183696        -0.899416
 H         3.529973        -2.106670         2.258720
 H         4.678083         0.514298         0.097160
 H         3.548382         1.304322        -1.989711
 H         3.301303        -0.463465        -2.334065
 H         2.794052         0.919479         1.616881
