19
Iteration:   710charge 0 multiplicity 1
 C         0.007125         0.111369         0.095409
 C         1.481305        -0.083540        -0.125793
 C         1.948194        -1.611715         0.069650
 C         3.224946        -1.054029         0.672575
 O         4.211487        -1.830853         1.308421
 C         3.814803         0.083865        -0.058283
 C         3.159620         0.198829        -1.450659
 O         1.778999         0.509743        -1.383719
 C         2.540772         0.376141         0.906917
 H        -0.311307        -0.708025         0.781805
 H        -0.479318         0.867151         0.719242
 H        -0.538912        -0.034056        -0.777470
 H         1.189626        -2.110243         0.816552
 H         2.165279        -2.330193        -0.828535
 H         3.759231        -2.537246         1.836815
 H         4.811711         0.410144         0.264074
 H         3.704524         0.786760        -2.241423
 H         3.267599        -0.848198        -1.999100
 H         2.611231         1.156004         1.677661
