19
Iteration:   646charge 0 multiplicity 1
 C         0.097023         0.227414         0.278975
 C         1.428508        -0.257211        -0.115842
 C         1.917624        -1.783068        -0.014005
 C         3.228786        -1.150476         0.632303
 O         4.076484        -1.728789         1.499245
 C         3.778820         0.008703        -0.222807
 C         3.189449         0.629674        -1.482252
 O         1.823071         0.300851        -1.474539
 C         2.612093         0.205116         0.815842
 H        -0.053826         0.127478         1.386353
 H         0.211921         1.266784        -0.086892
 H        -0.674205        -0.293000        -0.180683
 H         1.157417        -2.185496         0.728926
 H         2.062532        -2.457609        -0.945017
 H         3.553857        -1.806800         2.320738
 H         4.662583         0.466226         0.202878
 H         3.365443         1.783154        -1.438719
 H         3.799189         0.280828        -2.431390
 H         2.638027         0.843658         1.698996
