19
Iteration:  4626charge 0 multiplicity 1
 C        -0.080273         0.134142         0.077832
 C         1.466857        -0.015741        -0.016041
 C         1.908783        -1.533567         0.133188
 C         3.273724        -1.052149         0.673770
 O         4.098910        -2.018797         1.269837
 C         3.772654         0.119125        -0.088198
 C         3.228276         0.160533        -1.532616
 O         1.805090         0.514261        -1.382266
 C         2.620307         0.331860         0.949027
 H        -0.450149        -0.253232         1.013351
 H        -0.442033         1.181636         0.162060
 H        -0.448982        -0.433104        -0.909540
 H         1.442204        -2.032102         1.066192
 H         1.831431        -2.332547        -0.597235
 H         4.989160        -1.658519         1.409855
 H         4.850760         0.366363         0.074846
 H         3.704953         0.917391        -2.088914
 H         3.268147        -0.774970        -2.066767
 H         2.645367         1.113723         1.736698
