19
Iteration:  1007charge 0 multiplicity 1
 C         0.031271         0.124496         0.114830
 C         1.465293        -0.129004        -0.113970
 C         1.927950        -1.558457         0.070751
 C         3.209265        -1.079301         0.696650
 O         4.281638        -1.847531         1.320775
 C         3.665146         0.136834        -0.095397
 C         3.226491         0.277344        -1.497767
 O         1.764978         0.433868        -1.371130
 C         2.577123         0.230045         0.893809
 H        -0.441600        -0.271003         1.078325
 H        -0.176151         1.274959         0.135403
 H        -0.676174        -0.183679        -0.697961
 H         1.259262        -1.989168         0.775972
 H         1.861174        -2.086719        -0.849383
 H         4.137949        -2.061351         2.247731
 H         4.780055         0.245599         0.141387
 H         3.523002         1.078765        -2.148023
 H         3.460103        -0.635259        -2.098638
 H         2.445545         0.975052         1.756343
