19
Iteration:  2492charge 0 multiplicity 1
 C         0.013616         0.235818         0.305776
 C         1.484691        -0.204640        -0.075753
 C         1.999224        -1.703629         0.006098
 C         3.208887        -1.080938         0.636097
 O         4.106692        -1.783509         1.520930
 C         3.828586         0.015702        -0.227576
 C         3.157065         0.455606        -1.531818
 O         1.745211         0.356320        -1.447269
 C         2.642024         0.217806         0.789689
 H        -0.425921        -0.090074         1.314285
 H         0.089726         1.398191         0.252739
 H        -0.561920         0.128406        -0.581343
 H         1.455801        -2.176664         0.743474
 H         2.104700        -2.395446        -0.867533
 H         3.735278        -2.496971         2.067976
 H         4.644459         0.598556         0.206439
 H         3.449497         1.523898        -1.759137
 H         3.371559        -0.040113        -2.539642
 H         2.641524         0.901344         1.518103
