19
Iteration:  2361charge 0 multiplicity 1
 C         0.059886         0.098657         0.297987
 C         1.489665        -0.076780        -0.093958
 C         1.933409        -1.585620        -0.076350
 C         3.264209        -1.144820         0.621405
 O         4.050831        -1.760687         1.622675
 C         3.797054         0.024390        -0.255027
 C         3.166658         0.317279        -1.634308
 O         1.757321         0.487425        -1.391441
 C         2.658691         0.253100         0.851800
 H        -0.006386        -0.614076         1.183102
 H        -0.317833         1.087720         0.703917
 H        -0.645141        -0.384744        -0.317184
 H         1.132446        -2.084402         0.491207
 H         2.246892        -2.056119        -1.090977
 H         3.934162        -2.737178         1.615315
 H         4.763117         0.574314         0.208821
 H         3.430785         1.229589        -2.049251
 H         3.289269        -0.548759        -2.276898
 H         2.949101         1.031547         1.661647
