19
Iteration:  1271
 C         0.079591         0.176822         0.470232
 C         1.448357        -0.209494        -0.111755
 C         1.964915        -1.772540        -0.099518
 C         3.194731        -1.114727         0.599001
 O         4.012310        -1.726791         1.541869
 C         3.797678         0.032889        -0.133301
 C         3.282984         0.499351        -1.585265
 O         1.790095         0.381788        -1.549828
 C         2.599380         0.247694         0.804573
 H         0.097567        -0.165997         1.480413
 H        -0.023830         1.311501         0.491665
 H        -0.760292        -0.234499        -0.147459
 H         1.455846        -2.502064         0.590915
 H         2.037963        -2.143872        -1.177100
 H         3.551290        -1.695837         2.383234
 H         4.876486         0.139744         0.275504
 H         3.643261         1.496091        -1.924934
 H         3.431374        -0.245014        -2.462246
 H         2.581025         0.988921         1.646994
