19
Iteration:  3878
 C        -0.050553         0.256224         0.103830
 C         1.440091        -0.156980        -0.017621
 C         1.921454        -1.672449         0.102970
 C         3.206372        -1.132590         0.607318
 O         4.203194        -1.854588         1.302261
 C         3.658258         0.136754        -0.067550
 C         3.244234         0.298266        -1.518659
 O         1.850681         0.522434        -1.319959
 C         2.585050         0.229026         0.902680
 H        -0.518455        -0.293579         1.069299
 H        -0.118937         1.351413         0.203828
 H        -0.632503        -0.243681        -0.692005
 H         1.391357        -2.226799         0.957660
 H         1.759508        -2.341539        -0.733757
 H         4.578563        -2.552538         0.743419
 H         4.663968         0.572325         0.350950
 H         3.974271         0.953417        -2.172101
 H         3.441678        -0.626271        -2.078192
 H         2.681909         0.981427         1.648657
