19
Iteration:   996charge 0 multiplicity 1
 C        -0.003635         0.144273         0.153797
 C         1.452967        -0.146520        -0.122266
 C         1.864303        -1.666263         0.024069
 C         3.213064        -1.137342         0.609204
 O         4.227804        -1.795138         1.356660
 C         3.703197         0.076695        -0.105054
 C         3.187030         0.385238        -1.508316
 O         1.799321         0.373381        -1.404176
 C         2.640506         0.306204         0.958963
 H        -0.145490        -0.145837         1.246015
 H        -0.055813         1.289235         0.055714
 H        -0.662809        -0.395338        -0.576141
 H         1.252921        -2.027207         0.823579
 H         1.911168        -2.373167        -0.771793
 H         3.890945        -1.891917         2.261067
 H         4.778246         0.371051         0.173227
 H         3.578025         1.376693        -1.725344
 H         3.578918        -0.390340        -2.202428
 H         2.893948         1.135244         1.709401
