19
Iteration:  2022charge 0 multiplicity 1
 C         0.040384         0.253751         0.544681
 C         1.425027        -0.159598        -0.188756
 C         1.944745        -1.620952        -0.037927
 C         3.292573        -1.149396         0.593250
 O         3.955507        -1.793041         1.634442
 C         3.800950         0.045939        -0.200167
 C         3.206174         0.443151        -1.598030
 O         1.796774         0.284289        -1.573616
 C         2.656762         0.220626         0.762351
 H        -0.041769        -0.203523         1.505553
 H        -0.080211         1.299547         0.749625
 H        -0.751431        -0.165045        -0.116218
 H         1.363233        -2.164108         0.645746
 H         2.001312        -2.141511        -0.938097
 H         4.860737        -2.065585         1.443665
 H         4.832212         0.464649         0.071217
 H         3.447272         1.586595        -1.725406
 H         3.628854        -0.111290        -2.415838
 H         2.438294         0.980730         1.661935
