19
Iteration:   638
 C         0.073878         0.165143         0.231627
 C         1.448097        -0.222744        -0.149921
 C         1.858484        -1.759908         0.014565
 C         3.208186        -1.128413         0.641186
 O         4.086889        -1.735825         1.508014
 C         3.802992         0.001815        -0.245243
 C         3.243554         0.683461        -1.492362
 O         1.820402         0.294243        -1.408316
 C         2.628369         0.131365         0.783103
 H         0.100274         0.339294         1.342924
 H        -0.099145         1.250595        -0.001844
 H        -0.885318        -0.308963        -0.116593
 H         1.405493        -2.334028         0.746830
 H         1.818118        -2.334511        -0.871377
 H         3.697881        -1.783425         2.411767
 H         4.737245         0.485483         0.188445
 H         3.484728         1.729072        -1.455107
 H         3.602126         0.300559        -2.371732
 H         2.604606         1.010143         1.493411
