19
Iteration:  4632charge 0 multiplicity 1
 C        -0.030405         0.138900         0.064657
 C         1.426731        -0.010721         0.002478
 C         1.933888        -1.499868         0.169954
 C         3.303181        -1.073464         0.627574
 O         4.058602        -1.991630         1.243800
 C         3.839940         0.092518        -0.095891
 C         3.176309         0.127080        -1.478491
 O         1.799289         0.501407        -1.395254
 C         2.631384         0.319010         0.947987
 H        -0.595607        -0.401229         0.900359
 H        -0.493347         1.142608         0.026507
 H        -0.524627        -0.217568        -0.795886
 H         1.463931        -2.023641         0.954713
 H         1.868092        -2.318609        -0.623390
 H         4.844964        -1.464114         1.547704
 H         4.812307         0.584785         0.138612
 H         3.552672         1.093111        -2.016821
 H         3.408870        -0.880017        -2.022860
 H         2.704728         0.956827         1.818894
