19
Iteration:  1705charge 0 multiplicity 1
 C         0.003527         0.456154         0.274613
 C         1.426993        -0.254909        -0.137450
 C         1.863838        -1.718185         0.019580
 C         3.289061        -1.151504         0.570908
 O         4.167870        -1.708878         1.417202
 C         3.843010         0.078296        -0.117964
 C         3.174978         0.520891        -1.466976
 O         1.815834         0.100308        -1.444743
 C         2.574402         0.140566         0.812099
 H        -0.131401         0.232629         1.353092
 H         0.265110         1.538925         0.098098
 H        -0.903605         0.152658        -0.268712
 H         1.258960        -2.248722         0.854911
 H         1.698480        -2.272192        -0.968888
 H         3.881058        -1.765497         2.342359
 H         4.900962         0.478933         0.186750
 H         3.158161         1.587456        -1.625918
 H         3.705542         0.037277        -2.365274
 H         2.465449         0.873169         1.732195
