19
Iteration:  2420
 C        -0.041142         0.227452         0.165522
 C         1.413671        -0.139071        -0.024679
 C         1.898793        -1.568295         0.079649
 C         3.334772        -1.128923         0.628267
 O         4.288199        -1.984465         1.276246
 C         3.718591         0.162196        -0.007493
 C         3.212385         0.323791        -1.487991
 O         1.741655         0.328435        -1.472384
 C         2.563598         0.388303         0.897914
 H        -0.256046         0.164928         1.176515
 H        -0.128948         1.190618        -0.229208
 H        -0.627816        -0.323898        -0.561863
 H         1.155930        -2.012667         0.861177
 H         1.878535        -2.273794        -0.733192
 H         4.066306        -2.003782         2.221240
 H         4.653677         0.481433         0.163619
 H         3.566048         1.261914        -2.015017
 H         3.662786        -0.463055        -2.128990
 H         2.491068         1.032858         1.728846
