19
Iteration:  1600charge 0 multiplicity 1
 C        -0.005290         0.201031         0.231207
 C         1.464004        -0.162461        -0.052047
 C         1.989170        -1.671765         0.009053
 C         3.279817        -1.118958         0.595853
 O         4.145292        -1.814062         1.494717
 C         3.730318         0.048425        -0.147718
 C         3.164157         0.251261        -1.584549
 O         1.770250         0.486625        -1.387315
 C         2.635665         0.292458         0.815703
 H        -0.286269        -0.015562         1.263548
 H        -0.265258         1.291709         0.019923
 H        -0.759795        -0.203052        -0.546348
 H         1.473596        -2.252282         0.794139
 H         2.153139        -2.291273        -0.897356
 H         3.774603        -1.776264         2.398012
 H         4.806701         0.314445         0.121600
 H         3.528023         1.221228        -2.085272
 H         3.407052        -0.540620        -2.303318
 H         2.571367         1.160167         1.472069
