19
Iteration:  4786charge 0 multiplicity 1
 C        -0.039056         0.268029         0.081066
 C         1.467847        -0.008518        -0.003599
 C         1.868276        -1.567079         0.123074
 C         3.215678        -1.095454         0.599585
 O         4.232518        -1.808784         1.202884
 C         3.732420         0.058328        -0.057234
 C         3.262452         0.053137        -1.457225
 O         1.790241         0.432314        -1.303723
 C         2.623696         0.318777         0.883228
 H        -0.673177        -0.107357         0.897854
 H        -0.258825         1.349796         0.067362
 H        -0.348908        -0.164783        -0.879030
 H         1.302682        -1.902592         1.030789
 H         1.776419        -2.205390        -0.927572
 H         3.938749        -2.474197         1.835856
 H         4.744358         0.242564         0.145369
 H         3.733960         0.807654        -2.128843
 H         3.242978        -0.877398        -1.925747
 H         2.750736         0.787488         1.835006
