19
Iteration:  4450charge 0 multiplicity 1
 C        -0.029199         0.310857         0.110381
 C         1.404949        -0.107384        -0.016909
 C         1.877544        -1.606760         0.033148
 C         3.267941        -1.133998         0.679731
 O         4.235422        -2.022675         1.406379
 C         3.732504         0.059525        -0.119670
 C         3.199102         0.252993        -1.465229
 O         1.786536         0.452135        -1.353143
 C         2.542293         0.356556         0.853246
 H        -0.285759         0.159823         1.130107
 H        -0.036322         1.246082        -0.388932
 H        -0.568937        -0.474803        -0.475000
 H         1.387010        -2.259731         0.898944
 H         2.100196        -2.100109        -0.973848
 H         5.105418        -1.725785         1.096267
 H         4.661600         0.466089         0.159066
 H         3.617667         1.256581        -1.949879
 H         3.282901        -0.525926        -2.286490
 H         2.580650         1.248063         1.417572
