19
Iteration:  1513
 C         0.021239         0.244739         0.088258
 C         1.453670        -0.158297        -0.015023
 C         1.865922        -1.584163         0.163343
 C         3.298783        -1.100182         0.659200
 O         4.206700        -1.813036         1.404542
 C         3.735746         0.021391        -0.173532
 C         3.206029         0.356020        -1.518271
 O         1.702670         0.313797        -1.448294
 C         2.665186         0.310619         0.869096
 H        -0.373760         0.096687         1.093504
 H         0.065293         1.361420         0.028809
 H        -0.470945        -0.390671        -0.737698
 H         1.399614        -2.127321         1.061259
 H         1.819265        -2.279741        -0.748349
 H         3.745261        -2.657276         1.608756
 H         4.677278         0.568917         0.124704
 H         3.544318         1.426091        -1.787342
 H         3.668020        -0.299579        -2.246333
 H         2.561060         0.956423         1.789401
