19
Iteration:  1087charge 0 multiplicity 1
 C         0.049312         0.152320         0.335741
 C         1.451990        -0.237135        -0.168546
 C         1.956978        -1.662992         0.043752
 C         3.211367        -1.120389         0.628419
 O         4.029009        -1.704659         1.540154
 C         3.878299        -0.007378        -0.245926
 C         3.227276         0.552500        -1.511839
 O         1.790378         0.336195        -1.438849
 C         2.626003         0.242939         0.741850
 H        -0.086294        -0.322899         1.329124
 H         0.006856         1.268782         0.476983
 H        -0.839413        -0.149694        -0.326833
 H         1.343570        -2.215933         0.777168
 H         2.018891        -2.343504        -0.863369
 H         3.639424        -2.570424         1.736901
 H         4.834565         0.293018         0.145984
 H         3.264771         1.680224        -1.539369
 H         3.530673         0.169508        -2.540710
 H         2.507844         0.798878         1.662798
