19
Iteration:  1042
 C        -0.101249         0.148865         0.125296
 C         1.422158        -0.130335        -0.110348
 C         2.080834        -1.560277         0.051758
 C         3.290884        -1.051197         0.693996
 O         4.182709        -1.839388         1.325450
 C         3.707523         0.184635        -0.110941
 C         3.207479         0.161081        -1.493676
 O         1.772287         0.442582        -1.307312
 C         2.591895         0.308014         0.897261
 H        -0.504366        -0.586285         0.802593
 H        -0.114253         1.177638         0.582086
 H        -0.570763         0.173817        -0.900339
 H         1.534332        -2.180234         0.753088
 H         2.145945        -2.148763        -0.903184
 H         3.656504        -2.611159         1.567805
 H         4.745176         0.363372         0.065319
 H         3.660720         0.902773        -2.198555
 H         3.321469        -0.896686        -1.879803
 H         2.597056         1.184137         1.550344
