19
Iteration:  3670
 C         0.132552         0.205632         0.393984
 C         1.504486        -0.156927        -0.132948
 C         1.974265        -1.727751        -0.067683
 C         3.195654        -1.166807         0.538438
 O         3.943491        -1.808128         1.501022
 C         3.810930         0.116375        -0.116453
 C         3.225224         0.526984        -1.494339
 O         1.741084         0.395590        -1.441295
 C         2.600719         0.182989         0.819783
 H         0.008542         0.092658         1.468755
 H         0.044791         1.199888         0.032732
 H        -0.664673        -0.358826         0.006134
 H         1.354482        -2.416717         0.667332
 H         2.056733        -2.317179        -1.055849
 H         4.683807        -2.314347         1.134821
 H         4.731370         0.412944         0.238802
 H         3.493766         1.558064        -1.797805
 H         3.692650        -0.122129        -2.258046
 H         2.451662         0.850734         1.683666
