19
Iteration:  3073charge 0 multiplicity 1
 C         0.063281         0.046122         0.458423
 C         1.484260        -0.150966        -0.144034
 C         2.061144        -1.707839        -0.102951
 C         3.180582        -1.045269         0.649802
 O         3.865477        -1.914749         1.530635
 C         3.796255         0.093307        -0.215217
 C         3.258112         0.438418        -1.614728
 O         1.782316         0.464307        -1.424094
 C         2.633002         0.299012         0.778318
 H         0.238980        -0.526473         1.376840
 H        -0.097437         1.138499         0.752030
 H        -0.849037        -0.082273        -0.131014
 H         1.465423        -2.347168         0.479489
 H         2.381552        -2.118577        -1.053689
 H         4.454066        -1.496071         2.183470
 H         4.733013         0.471035         0.128714
 H         3.589416         1.429070        -1.915859
 H         3.553393        -0.226929        -2.541867
 H         2.576715         1.037511         1.662347
