19
Iteration:  1216charge 0 multiplicity 1
 C        -0.083003         0.199149         0.181981
 C         1.451126        -0.135130        -0.079031
 C         1.990893        -1.679934         0.030751
 C         3.287760        -1.072943         0.637389
 O         4.140861        -1.852667         1.458251
 C         3.730095         0.145951        -0.198707
 C         3.234703         0.303441        -1.557276
 O         1.788107         0.402424        -1.320610
 C         2.659285         0.271444         0.831834
 H        -0.529398        -0.494481         0.839049
 H        -0.169473         1.226151         0.585833
 H        -0.543439         0.077098        -0.811634
 H         1.387801        -2.185277         0.791093
 H         2.095283        -2.316813        -0.871271
 H         3.562201        -2.262094         2.121969
 H         4.752739         0.576256         0.001628
 H         3.547330         1.268197        -1.874606
 H         3.269829        -0.361571        -2.424856
 H         2.662052         1.042661         1.644789
