19
Iteration:  4258charge 0 multiplicity 1
 C         0.070774         0.285507         0.337655
 C         1.460861        -0.163287        -0.143106
 C         1.856818        -1.628425         0.068375
 C         3.266932        -1.175359         0.547738
 O         4.001592        -1.875110         1.509382
 C         3.805544         0.147276        -0.112886
 C         3.241036         0.525164        -1.575472
 O         1.814742         0.270959        -1.485648
 C         2.606337         0.151747         0.810833
 H        -0.104807         0.025937         1.392750
 H        -0.020384         1.292047        -0.057714
 H        -0.836980        -0.094547        -0.117732
 H         1.402142        -2.051376         0.921165
 H         1.676713        -2.372753        -0.749071
 H         4.930321        -1.782256         1.284605
 H         4.812355         0.525636         0.260278
 H         3.370216         1.656289        -1.639374
 H         3.674334        -0.103504        -2.309225
 H         2.472725         0.599223         1.797295
