19
Iteration:   334charge 0 multiplicity 1
 C         0.069412         0.243495         0.409054
 C         1.373226        -0.171870        -0.148174
 C         2.026737        -1.761136        -0.090127
 C         3.235276        -1.181055         0.588675
 O         3.976088        -1.793462         1.615903
 C         3.767462         0.140041        -0.148439
 C         3.266200         0.483740        -1.574170
 O         1.869224         0.268171        -1.488950
 C         2.476138         0.283783         0.797720
 H        -0.068608        -0.123482         1.427702
 H         0.068181         1.310833         0.492102
 H        -0.769029         0.059464        -0.290996
 H         1.459011        -2.459201         0.714190
 H         2.151272        -2.238247        -1.115850
 H         4.857976        -1.846761         1.241175
 H         4.797907         0.408255         0.227623
 H         3.421468         1.617538        -1.675568
 H         3.725010        -0.047436        -2.370810
 H         2.391812         1.020599         1.669855
