19
Iteration:   788charge 0 multiplicity 1
 C         0.122241         0.268536         0.437503
 C         1.496476        -0.157798        -0.163725
 C         1.990506        -1.741924        -0.092874
 C         3.174652        -1.139073         0.622481
 O         4.074067        -1.790470         1.499152
 C         3.763663         0.135796        -0.090185
 C         3.232671         0.508388        -1.577206
 O         1.792875         0.244885        -1.542504
 C         2.551345         0.213833         0.802394
 H         0.020657         0.173788         1.531023
 H        -0.267999         1.251627         0.232329
 H        -0.657582        -0.350648         0.181559
 H         1.439316        -2.327456         0.731523
 H         2.175806        -2.279272        -1.110910
 H         3.645027        -2.181090         2.290006
 H         4.594535         0.661586         0.411109
 H         3.257846         1.589461        -1.656905
 H         3.682808        -0.140649        -2.353844
 H         2.405834         1.021475         1.529369
