19
Iteration:  2902
 C         0.054510         0.176889         0.380031
 C         1.423234        -0.194947        -0.156885
 C         1.950325        -1.744116        -0.087316
 C         3.276975        -1.102043         0.512636
 O         4.040800        -1.764541         1.548055
 C         3.857391         0.040109        -0.176308
 C         3.212089         0.407679        -1.511582
 O         1.759775         0.436045        -1.343917
 C         2.675734         0.261336         0.730308
 H        -0.167877        -0.243455         1.379699
 H        -0.034972         1.277620         0.401949
 H        -0.775958        -0.403205        -0.225348
 H         1.495400        -2.365553         0.732582
 H         1.907084        -2.165710        -1.104345
 H         3.293835        -1.997828         2.128565
 H         4.802774         0.346040         0.237174
 H         3.503736         1.441188        -1.785147
 H         3.431220        -0.110629        -2.495111
 H         2.480004         1.088264         1.536026
