19
Iteration:  3165
 C        -0.048180         0.145713         0.106105
 C         1.455209        -0.067791        -0.024921
 C         1.851753        -1.635898         0.113942
 C         3.227167        -1.139237         0.712661
 O         4.194622        -1.940994         1.370298
 C         3.721724         0.120587        -0.091370
 C         3.206119         0.506332        -1.527415
 O         1.774588         0.361030        -1.447160
 C         2.697348         0.239225         0.941989
 H        -0.412118         0.133457         1.145427
 H        -0.344841         1.101483        -0.316560
 H        -0.611201        -0.459331        -0.671442
 H         1.172508        -2.128677         0.955483
 H         1.917526        -2.227813        -0.851918
 H         4.850136        -2.177427         0.685615
 H         4.834076         0.357382         0.271976
 H         3.618770         1.568440        -1.742160
 H         3.636272        -0.106482        -2.376184
 H         2.638251         0.936258         1.730262
