19
Iteration:  3162
 C        -0.051042         0.164054         0.070629
 C         1.442986        -0.064644        -0.019929
 C         1.833960        -1.614319         0.128367
 C         3.241805        -1.126080         0.714757
 O         4.226713        -1.961155         1.383027
 C         3.723581         0.118689        -0.088974
 C         3.212300         0.499798        -1.532978
 O         1.768707         0.374007        -1.429658
 C         2.682343         0.200868         0.927101
 H        -0.402006         0.039617         1.132927
 H        -0.352623         1.131467        -0.286534
 H        -0.630888        -0.529531        -0.644139
 H         1.221523        -2.043106         0.856241
 H         1.919194        -2.180257        -0.774117
 H         4.928945        -2.116911         0.714786
 H         4.694885         0.283050         0.243681
 H         3.561426         1.456636        -1.785612
 H         3.608812        -0.006602        -2.389036
 H         2.634441         0.964534         1.663976
