19
Iteration:  1759
 C        -0.065087         0.199879         0.191205
 C         1.453298        -0.172684        -0.116013
 C         1.971118        -1.619879         0.144753
 C         3.295066        -1.068722         0.649569
 O         4.121400        -1.896748         1.374331
 C         3.734541         0.114943        -0.167154
 C         3.238576         0.369478        -1.547751
 O         1.767057         0.323886        -1.379981
 C         2.676077         0.405019         0.837353
 H        -0.319590        -0.294242         1.073180
 H        -0.198147         1.224013         0.054900
 H        -0.652284        -0.233901        -0.580632
 H         1.360093        -2.061885         0.965871
 H         1.861777        -2.342941        -0.686294
 H         3.568243        -2.393901         2.013593
 H         4.820206         0.405349         0.009010
 H         3.545398         1.387465        -1.915871
 H         3.630856        -0.405505        -2.228446
 H         2.671420         0.895821         1.843107
