19
Iteration:  3375
 C         0.077935         0.152717         0.231551
 C         1.486650        -0.182187        -0.109044
 C         1.954033        -1.709594         0.019362
 C         3.227501        -1.124755         0.604360
 O         3.968498        -1.835818         1.489766
 C         3.786060         0.005143        -0.132513
 C         3.116768         0.601088        -1.457962
 O         1.786752         0.311410        -1.458405
 C         2.679610         0.280753         0.863884
 H         0.013110         0.104290         1.317376
 H         0.036833         1.282322        -0.002379
 H        -0.669055        -0.181588        -0.462959
 H         1.514971        -2.204948         0.914385
 H         2.009520        -2.240588        -0.850159
 H         4.804164        -2.146618         1.076542
 H         4.813124         0.199137         0.041532
 H         3.320060         1.675552        -1.421641
 H         3.489536         0.267644        -2.529261
 H         2.772634         1.097177         1.547706
