19
Iteration:  4214charge 0 multiplicity 1
 C         0.056107         0.318020         0.278735
 C         1.408367        -0.184344        -0.064596
 C         1.978177        -1.656736        -0.034325
 C         3.213947        -1.165175         0.683326
 O         4.123559        -1.817071         1.551089
 C         3.789256         0.003671        -0.188420
 C         3.215767         0.446331        -1.568336
 O         1.766788         0.355219        -1.445013
 C         2.600183         0.267894         0.829858
 H        -0.397971        -0.253929         1.087009
 H        -0.034667         1.371594         0.405263
 H        -0.721429         0.190417        -0.462323
 H         1.326115        -2.321707         0.499841
 H         2.193134        -2.003063        -1.102659
 H         4.259806        -2.696613         1.179394
 H         4.765311         0.357351         0.126207
 H         3.380114         1.570906        -1.789881
 H         3.430491        -0.289519        -2.313993
 H         2.554965         0.856592         1.810069
