19
Iteration:  2227charge 0 multiplicity 1
 C        -0.178524         0.102269         0.157598
 C         1.401453        -0.106956        -0.063149
 C         1.919143        -1.465870         0.097668
 C         3.309279        -1.087864         0.609467
 O         4.116572        -1.922053         1.392858
 C         3.835838         0.128236        -0.134338
 C         3.233006         0.277437        -1.494493
 O         1.811698         0.408878        -1.354002
 C         2.678680         0.335005         0.871625
 H        -0.429514        -0.320930         1.112304
 H        -0.256290         1.165196         0.200858
 H        -0.722110        -0.516760        -0.630652
 H         1.547771        -1.980576         0.978979
 H         1.906672        -2.045470        -0.949104
 H         4.361740        -2.704879         0.863305
 H         4.715797         0.617531         0.001304
 H         3.585782         1.207724        -1.929181
 H         3.538318        -0.615540        -2.169204
 H         2.655602         0.972012         1.738750
