19
Iteration:  1617
 C         0.034964         0.074935         0.151365
 C         1.474668        -0.039594        -0.122851
 C         1.960046        -1.608196         0.012299
 C         3.229447        -1.102905         0.724163
 O         4.156913        -1.768265         1.441001
 C         3.793990         0.041581        -0.234470
 C         3.142764         0.150906        -1.543914
 O         1.762396         0.582755        -1.302718
 C         2.638636         0.288406         0.842637
 H        -0.227041        -0.324996         1.143042
 H        -0.278339         1.085321        -0.042542
 H        -0.548582        -0.507635        -0.523558
 H         1.227518        -2.070162         0.721969
 H         1.916953        -2.283426        -0.850436
 H         3.655016        -2.118027         2.209465
 H         4.754154         0.501734        -0.035310
 H         3.625986         0.822415        -2.195098
 H         3.104820        -0.874578        -2.019748
 H         2.914195         0.840384         1.795088
