19
Iteration:  2894charge 0 multiplicity 1
 C         0.051930         0.116402         0.378983
 C         1.452930        -0.185804        -0.108356
 C         1.997868        -1.669537        -0.109097
 C         3.234869        -1.093665         0.565916
 O         4.007706        -1.751222         1.500238
 C         3.856771         0.024135        -0.207475
 C         3.262695         0.378801        -1.542164
 O         1.742255         0.444178        -1.389134
 C         2.616265         0.286584         0.795273
 H        -0.019606        -0.173703         1.500375
 H         0.114591         1.264667         0.437942
 H        -0.818020        -0.358924        -0.124136
 H         1.365142        -2.274577         0.536698
 H         2.106257        -2.195682        -0.996851
 H         3.379372        -2.181961         2.105989
 H         4.721603         0.462361         0.142284
 H         3.557175         1.341914        -1.780769
 H         3.390386        -0.408250        -2.266484
 H         2.666815         0.907257         1.748305
