19
Iteration:   591
 C         0.007535         0.126962         0.129700
 C         1.418488        -0.156379        -0.104788
 C         1.991409        -1.581454         0.041409
 C         3.268656        -1.036480         0.681917
 O         4.122944        -1.899865         1.329473
 C         3.748747         0.202238        -0.054019
 C         3.213039         0.274298        -1.590283
 O         1.811329         0.391469        -1.311027
 C         2.599961         0.337383         0.912063
 H        -0.215117         0.072163         1.219442
 H        -0.487625         1.025890        -0.282224
 H        -0.448655        -0.685567        -0.363288
 H         1.287520        -2.222591         0.601939
 H         2.136979        -2.151583        -0.943699
 H         3.587367        -2.275426         2.038322
 H         4.740461         0.422755         0.249407
 H         3.521460         1.209897        -2.111671
 H         3.580928        -0.631279        -2.138202
 H         2.521736         1.125140         1.609471
