19
Iteration:  3342
 C         0.007897         0.295748         0.227771
 C         1.438950        -0.147590        -0.113138
 C         1.843618        -1.679168         0.012058
 C         3.279461        -1.217585         0.486974
 O         4.184405        -1.848120         1.467904
 C         3.708124         0.210151        -0.030495
 C         3.200170         0.558818        -1.490852
 O         1.867909         0.235866        -1.456711
 C         2.534556         0.190293         0.893341
 H        -0.178284         0.294730         1.279612
 H        -0.018060         1.341264        -0.211655
 H        -0.757936        -0.367804        -0.033271
 H         1.403506        -2.170770         0.936303
 H         1.578959        -2.319078        -0.748907
 H         4.944894        -2.268891         1.018425
 H         4.608532         0.351676         0.397769
 H         3.469570         1.542461        -1.791982
 H         3.650952        -0.166363        -2.298607
 H         2.450209         0.775257         1.808507
