19
Iteration:    95charge 0 multiplicity 1
 C        -0.032673         0.157720         0.089768
 C         1.403471        -0.168070        -0.103077
 C         1.917619        -1.665031         0.032344
 C         3.267180        -1.136700         0.637082
 O         4.151461        -1.784129         1.514951
 C         3.768597         0.173786        -0.165093
 C         3.219050         0.232898        -1.573150
 O         1.881220         0.520959        -1.235375
 C         2.564010         0.249978         0.861277
 H        -0.519884        -0.113756         1.061072
 H        -0.345656         1.206726         0.013080
 H        -0.667269        -0.517183        -0.651365
 H         1.370590        -2.131964         0.883994
 H         1.982715        -2.192884        -0.931079
 H         4.402035        -2.532876         0.929481
 H         4.627729         0.695037         0.149046
 H         3.522048         1.109323        -2.208150
 H         3.391201        -0.594753        -2.320407
 H         2.574671         0.906007         1.631114
