19
Iteration:   248
 C         0.006855         0.072024         0.138272
 C         1.474618        -0.071077        -0.010360
 C         1.920067        -1.575882         0.082672
 C         3.220060        -1.032335         0.623604
 O         4.076347        -2.029690         1.393784
 C         3.675665         0.216837        -0.044952
 C         3.262115         0.254614        -1.560933
 O         1.831002         0.465690        -1.422990
 C         2.606842         0.345461         0.889264
 H        -0.353399        -0.446172         1.084572
 H        -0.341921         1.114870        -0.002876
 H        -0.335949        -0.643721        -0.784416
 H         1.511053        -2.056038         0.984043
 H         1.895295        -2.154983        -0.844889
 H         4.931420        -1.581324         1.399565
 H         4.664348         0.637592         0.244819
 H         3.550447         1.040429        -2.352846
 H         3.454170        -0.726587        -2.065548
 H         2.649493         1.074710         1.763204
