19
Iteration:   742charge 0 multiplicity 1
 C        -0.098598         0.099716         0.062978
 C         1.416274        -0.076770         0.037013
 C         1.933480        -1.648344         0.097646
 C         3.319790        -1.089243         0.600333
 O         4.199216        -1.838465         1.405622
 C         3.800398         0.024850        -0.166359
 C         3.172679         0.300071        -1.624369
 O         1.815315         0.539605        -1.319282
 C         2.605783         0.303148         0.901442
 H        -0.581474        -0.576895         0.818166
 H        -0.522918         1.153862         0.090544
 H        -0.506430        -0.378368        -0.823329
 H         1.326785        -2.287878         0.834374
 H         2.066321        -2.148455        -0.895777
 H         3.750979        -1.977703         2.245440
 H         4.848230         0.274457         0.107491
 H         3.755573         1.171937        -1.944486
 H         3.228085        -0.680991        -2.080885
 H         2.754093         1.029843         1.729054
