19
Iteration:   439charge 0 multiplicity 1
 C        -0.071661         0.102120         0.180596
 C         1.389091        -0.140145        -0.093409
 C         1.928075        -1.613643        -0.068505
 C         3.228088        -1.062206         0.671645
 O         4.164130        -1.854794         1.506752
 C         3.772259         0.188547        -0.063950
 C         3.267193         0.253254        -1.538566
 O         1.801478         0.472465        -1.412708
 C         2.640493         0.273510         0.900227
 H        -0.382818         0.006322         1.280562
 H        -0.484788         1.064953        -0.316559
 H        -0.612034        -0.746595        -0.250354
 H         1.416197        -2.056518         0.660970
 H         1.814090        -2.112152        -1.001463
 H         4.690748        -2.321171         0.840320
 H         4.709671         0.566852         0.447101
 H         3.689304         1.009844        -2.197712
 H         3.455001        -0.742061        -2.019408
 H         2.555971         1.186545         1.569248
