19
Iteration:  1461charge 0 multiplicity 1
 C         0.004004         0.085736         0.319495
 C         1.507865        -0.078660        -0.144812
 C         1.938012        -1.500930        -0.073340
 C         3.257515        -1.055337         0.668474
 O         4.089424        -1.838924         1.433940
 C         3.712490         0.054735        -0.103632
 C         3.204223         0.217560        -1.588381
 O         1.836911         0.467946        -1.393088
 C         2.559514         0.244501         0.850345
 H         0.101861        -0.239967         1.354977
 H        -0.255951         1.140873         0.094871
 H        -0.562027        -0.465366        -0.453879
 H         1.277078        -1.947142         0.724914
 H         2.058562        -2.232942        -0.884515
 H         4.031613        -1.856450         2.412276
 H         4.728801         0.415051         0.204599
 H         3.664961         0.902501        -2.235429
 H         3.300558        -0.817287        -2.031672
 H         2.770777         1.179715         1.384548
