19
Iteration:  2942
 C         0.056684         0.224348         0.159862
 C         1.469500        -0.181545        -0.139296
 C         1.931053        -1.625579         0.048214
 C         3.239956        -1.141570         0.658585
 O         4.132907        -1.893037         1.359826
 C         3.764147         0.072579        -0.093241
 C         3.149293         0.472699        -1.511983
 O         1.730666         0.327782        -1.434440
 C         2.646537         0.306008         0.930164
 H        -0.318556        -0.300528         1.033772
 H         0.056095         1.311768         0.435557
 H        -0.609674        -0.186782        -0.611571
 H         1.404340        -2.199754         0.818340
 H         1.993369        -2.306657        -0.893788
 H         4.269963        -1.660406         2.293056
 H         4.927373         0.162744        -0.019723
 H         3.299571         1.594454        -1.563753
 H         3.549450        -0.134397        -2.323930
 H         2.664167         0.983728         1.756107
