19
Iteration:  3866
 C         0.048147         0.141236         0.159500
 C         1.456764        -0.108775        -0.072018
 C         1.862170        -1.645086         0.036257
 C         3.199894        -1.102410         0.681459
 O         4.130769        -1.864549         1.330488
 C         3.775926         0.146309        -0.108947
 C         3.259181         0.233374        -1.523682
 O         1.800088         0.533871        -1.290294
 C         2.602928         0.267434         0.885578
 H        -0.350007        -0.250072         1.226324
 H        -0.231268         1.230689         0.046900
 H        -0.475163        -0.261528        -0.754609
 H         1.222519        -2.098908         0.814133
 H         2.019196        -2.211048        -0.853643
 H         4.522931        -2.369081         0.586087
 H         4.786085         0.550345         0.294223
 H         3.473135         1.208289        -2.108544
 H         3.322660        -0.734405        -2.045632
 H         2.499531         0.798315         1.826824
