19
Iteration:   570charge 0 multiplicity 1
 C        -0.049791         0.124771         0.158777
 C         1.365245        -0.163641        -0.074874
 C         2.075470        -1.586322         0.005919
 C         3.254782        -1.087631         0.691976
 O         4.190207        -1.864248         1.333958
 C         3.738835         0.152026        -0.044224
 C         3.220265         0.132508        -1.440947
 O         1.796182         0.513774        -1.418499
 C         2.535185         0.427926         0.874873
 H        -0.381479        -0.184516         1.206161
 H        -0.143685         1.273854         0.070610
 H        -0.535491        -0.374223        -0.651965
 H         1.550104        -2.203932         0.689568
 H         2.024631        -2.114312        -0.967622
 H         3.826723        -2.762683         1.504051
 H         4.657050         0.651013         0.125055
 H         3.855480         0.731627        -2.105095
 H         3.292988        -0.800835        -1.848859
 H         2.536585         1.155839         1.639399
