19
Iteration:  2469
 C         0.074031         0.240396         0.273382
 C         1.491839        -0.170023        -0.147437
 C         1.898580        -1.699838         0.106353
 C         3.260280        -1.141064         0.535649
 O         4.146432        -1.828117         1.485401
 C         3.693132         0.104625        -0.141595
 C         3.172792         0.584531        -1.495895
 O         1.781559         0.199817        -1.496832
 C         2.667601         0.263251         0.811095
 H         0.108545        -0.074608         1.382983
 H         0.016867         1.391805         0.160643
 H        -0.731601        -0.043665        -0.420389
 H         1.421733        -2.167565         0.889205
 H         1.491787        -2.164545        -0.826180
 H         3.614573        -2.213840         2.217891
 H         4.803002         0.224437         0.238502
 H         3.279702         1.747907        -1.713220
 H         3.609074         0.079168        -2.407676
 H         2.586935         0.831164         1.719100
