19
Iteration:  3763
 C        -0.069337         0.177768         0.282649
 C         1.424276        -0.094568        -0.077740
 C         1.968544        -1.610979        -0.033958
 C         3.274619        -1.126628         0.581761
 O         4.080355        -1.954068         1.421024
 C         3.708270         0.092479        -0.101416
 C         3.282259         0.335835        -1.466795
 O         1.780148         0.422220        -1.403072
 C         2.625372         0.310935         0.879261
 H        -0.386560        -0.498232         1.078772
 H        -0.046941         1.331304         0.482979
 H        -0.884518         0.002083        -0.537244
 H         1.372857        -2.303369         0.525943
 H         2.109274        -2.092546        -1.000949
 H         5.006009        -1.743325         1.192820
 H         4.707749         0.571419         0.085475
 H         3.695916         1.247488        -1.831695
 H         3.398254        -0.331145        -2.310787
 H         2.827176         1.051847         1.632921
