19
Iteration:  3862
 C         0.050113         0.116581         0.189477
 C         1.486380        -0.094020        -0.102715
 C         1.875437        -1.620694         0.017541
 C         3.182855        -1.057002         0.658016
 O         4.117373        -1.890032         1.365120
 C         3.802384         0.130904        -0.108937
 C         3.224318         0.245023        -1.490606
 O         1.793192         0.521304        -1.302220
 C         2.623545         0.276443         0.908340
 H        -0.302460        -0.288561         1.105815
 H        -0.189949         1.194703         0.005049
 H        -0.564313        -0.328348        -0.652352
 H         1.208816        -2.060358         0.701797
 H         1.999586        -2.151219        -0.943000
 H         4.571159        -2.323305         0.623981
 H         4.766733         0.406276         0.113381
 H         3.381735         1.070899        -2.101543
 H         3.337336        -0.666563        -2.188956
 H         2.426163         0.836690         1.852902
