19
Iteration:  3164charge 0 multiplicity 1
 C        -0.048713         0.152271         0.094295
 C         1.450999        -0.064973        -0.022153
 C         1.844929        -1.629214         0.118269
 C         3.232347        -1.133573         0.714725
 O         4.205774        -1.948184         1.374686
 C         3.720807         0.120591        -0.089739
 C         3.207723         0.504443        -1.530326
 O         1.772113         0.365146        -1.442101
 C         2.694083         0.225513         0.937858
 H        -0.408846         0.105549         1.148196
 H        -0.348539         1.097743        -0.306647
 H        -0.626914        -0.483615        -0.676480
 H         1.182599        -2.101581         0.929013
 H         1.921943        -2.211876        -0.827847
 H         4.879856        -2.157980         0.692520
 H         4.797623         0.330997         0.268995
 H         3.606334         1.526495        -1.759190
 H         3.628984        -0.065743        -2.382708
 H         2.635425         0.933089         1.690752
