19
Iteration:   301charge 0 multiplicity 1
 C         0.008597         0.170860         0.102696
 C         1.518908        -0.149870        -0.096262
 C         1.971086        -1.638583         0.035394
 C         3.244548        -1.108505         0.598203
 O         4.058258        -1.906393         1.507706
 C         3.760859         0.142521        -0.119073
 C         3.193522         0.354578        -1.539093
 O         1.789019         0.421694        -1.352562
 C         2.587862         0.281658         0.902202
 H        -0.271150         0.101808         1.180746
 H        -0.135994         1.171206        -0.282951
 H        -0.636748        -0.614013        -0.413991
 H         1.224457        -2.281335         0.692333
 H         1.867677        -2.321166        -0.864322
 H         4.950473        -1.543959         1.409518
 H         4.835792         0.463909         0.026230
 H         3.362730         1.365438        -2.071537
 H         3.467715        -0.419974        -2.226770
 H         2.493627         0.948689         1.832496
