19
Iteration:  4174charge 0 multiplicity 1
 C        -0.026572         0.037876         0.203962
 C         1.490707        -0.116727        -0.090461
 C         1.945301        -1.592805         0.080233
 C         3.255092        -0.998377         0.608013
 O         3.961320        -1.869476         1.449260
 C         3.812766         0.112447        -0.198423
 C         3.212211         0.219008        -1.609326
 O         1.820569         0.592497        -1.286665
 C         2.672246         0.341733         0.855350
 H        -0.315314        -0.570304         1.143501
 H        -0.254866         1.033829         0.527790
 H        -0.234859        -0.381637        -0.757057
 H         1.507428        -2.054101         1.029473
 H         2.115904        -2.164138        -0.892248
 H         3.978528        -2.747175         0.982685
 H         4.975835         0.291324        -0.004035
 H         3.639115         0.993146        -2.301504
 H         3.201564        -0.880270        -2.019552
 H         2.673147         0.642626         1.868151
