19
Iteration:  1904
 C        -0.026373         0.277135         0.207329
 C         1.418594        -0.169348        -0.106386
 C         1.857575        -1.550828         0.214349
 C         3.263355        -1.080778         0.650338
 O         4.238700        -1.985979         1.258100
 C         3.731525         0.144176        -0.096569
 C         3.265949         0.403967        -1.493214
 O         1.804635         0.212361        -1.515561
 C         2.553531         0.372916         0.861202
 H        -0.330897        -0.050217         1.168426
 H        -0.072701         1.351084         0.187685
 H        -0.497682        -0.259569        -0.590489
 H         1.390689        -2.032744         1.125716
 H         1.796506        -2.221439        -0.702960
 H         4.005095        -2.034177         2.206047
 H         4.648678         0.573169         0.365753
 H         3.446993         1.443426        -1.792378
 H         3.720645        -0.362950        -2.215089
 H         2.575304         0.944122         1.872335
