19
Iteration:  2753charge 0 multiplicity 1
 C         0.179980         0.189484         0.329601
 C         1.476749        -0.189841        -0.095678
 C         1.927487        -1.590295        -0.040594
 C         3.255745        -1.043965         0.543001
 O         4.082488        -1.842303         1.458100
 C         3.696056         0.185699        -0.077025
 C         3.230783         0.401941        -1.541405
 O         1.749190         0.227406        -1.470198
 C         2.585544         0.269591         0.782170
 H         0.188103        -0.118909         1.418775
 H         0.003901         1.326196         0.379663
 H        -0.604795        -0.192727        -0.264529
 H         1.465851        -2.165459         0.868251
 H         1.816656        -2.308445        -0.981369
 H         3.487702        -2.201659         2.133538
 H         4.698291         0.498970         0.341509
 H         3.390323         1.485859        -1.737623
 H         3.528420        -0.409870        -2.174481
 H         2.633815         0.998145         1.762012
