19
Iteration:  4519
 C         0.062647         0.185217         0.371298
 C         1.500410        -0.117232        -0.143579
 C         1.916701        -1.621359        -0.022914
 C         3.214884        -1.094218         0.710987
 O         3.995340        -1.883422         1.601656
 C         3.791628        -0.022849        -0.211564
 C         3.234508         0.452542        -1.577366
 O         1.761735         0.403224        -1.485264
 C         2.644255         0.282666         0.804119
 H        -0.109357        -0.559124         1.101624
 H        -0.089576         1.233457         0.639394
 H        -0.650273        -0.017840        -0.395280
 H         1.264908        -2.261359         0.668497
 H         2.102368        -2.166567        -1.008544
 H         4.531909        -2.461493         1.020241
 H         4.851467         0.367675        -0.056620
 H         3.473482         1.601150        -1.739146
 H         3.629710        -0.165692        -2.489572
 H         2.636614         1.084671         1.597266
