19
Iteration:  4984
 C         0.113075         0.398570         0.228985
 C         1.455274        -0.169366        -0.174259
 C         1.866394        -1.651673         0.221605
 C         3.188908        -1.105869         0.648539
 O         4.173576        -1.850443         1.393295
 C         3.755444         0.031716        -0.130678
 C         3.235446         0.487743        -1.496657
 O         1.776048         0.129838        -1.498411
 C         2.629892         0.280803         0.815798
 H        -0.165221        -0.064461         1.189546
 H         0.245674         1.538578         0.316442
 H        -0.794084         0.259194        -0.548804
 H         1.186631        -1.938802         0.999191
 H         1.797355        -2.371924        -0.526470
 H         3.583672        -2.481617         1.870417
 H         4.869715         0.122837         0.070865
 H         3.299676         1.633868        -1.474559
 H         3.586893         0.074816        -2.516354
 H         2.411627         1.229966         1.300734
