19
Iteration:  2507
 C         0.072858         0.207822         0.245341
 C         1.459188        -0.197945        -0.082506
 C         1.975921        -1.702822        -0.013708
 C         3.231797        -1.134011         0.663624
 O         4.118384        -1.768375         1.476914
 C         3.726374         0.075444        -0.162505
 C         3.202441         0.352493        -1.612100
 O         1.741690         0.419330        -1.330147
 C         2.642177         0.331352         0.816141
 H        -0.249694        -0.338217         1.131726
 H        -0.025983         1.262035         0.528799
 H        -0.665408        -0.072347        -0.544076
 H         1.340950        -2.459522         0.600163
 H         2.182786        -2.052101        -1.036338
 H         3.525029        -2.369889         1.947641
 H         4.783794         0.212384        -0.060198
 H         3.543853         1.269002        -2.129071
 H         3.579460        -0.407922        -2.357810
 H         2.638299         1.107728         1.688749
