19
Iteration:  2521charge 0 multiplicity 1
 C         0.056516         0.119826         0.282820
 C         1.502568        -0.051643        -0.102454
 C         1.969295        -1.587879        -0.069203
 C         3.217225        -1.070663         0.598522
 O         4.157988        -1.821269         1.449868
 C         3.720586         0.116622        -0.163045
 C         3.149298         0.184364        -1.529417
 O         1.790529         0.453949        -1.401851
 C         2.611831         0.298145         0.883611
 H        -0.200112        -0.527154         1.102857
 H        -0.133749         1.137828         0.492452
 H        -0.537044        -0.218852        -0.606611
 H         1.289519        -2.191584         0.631929
 H         2.066486        -2.210430        -0.971588
 H         3.689511        -2.275737         2.184698
 H         4.759113         0.483577         0.188520
 H         3.565019         1.115477        -1.951532
 H         3.188160        -0.820515        -1.997007
 H         2.556545         1.037745         1.708712
