19
Iteration:   781
 C         0.130614         0.224367         0.381360
 C         1.485415        -0.155178        -0.158932
 C         1.969162        -1.735143        -0.044051
 C         3.231157        -1.140404         0.629589
 O         4.102660        -1.816365         1.513896
 C         3.736461         0.123630        -0.098069
 C         3.184785         0.496882        -1.588965
 O         1.803525         0.301070        -1.526436
 C         2.556190         0.229325         0.856413
 H         0.046326         0.256526         1.449460
 H        -0.056155         1.273389         0.111407
 H        -0.678062        -0.436468        -0.101327
 H         1.437179        -2.391074         0.619660
 H         2.033315        -2.159012        -1.066918
 H         3.509762        -2.011363         2.290047
 H         4.656099         0.518787         0.275491
 H         3.259970         1.573426        -1.898815
 H         3.517805        -0.081598        -2.485631
 H         2.397159         0.923051         1.638616
