19
Iteration:  2379
 C         0.011039         0.093033         0.240989
 C         1.515064        -0.140395        -0.052701
 C         1.983239        -1.659518        -0.022564
 C         3.203168        -1.101724         0.599123
 O         4.107396        -1.722339         1.462192
 C         3.781033         0.050208        -0.186655
 C         3.164838         0.210060        -1.541910
 O         1.766082         0.550770        -1.291773
 C         2.692766         0.336667         0.834158
 H        -0.537841        -0.287203         1.128889
 H        -0.171925         1.165593         0.061456
 H        -0.637909        -0.245519        -0.741123
 H         1.405043        -2.304488         0.631338
 H         1.845080        -2.142868        -1.007287
 H         3.752480        -2.636752         1.557593
 H         4.843649         0.124543        -0.038416
 H         3.705474         1.149131        -2.000448
 H         3.192324        -0.737829        -2.128652
 H         2.562650         0.965318         1.738334
