19
Iteration:  1454
 C         0.071324         0.111950         0.294296
 C         1.470958        -0.087839        -0.141756
 C         1.949222        -1.569432        -0.041072
 C         3.221587        -1.086705         0.655013
 O         4.067702        -1.838035         1.464335
 C         3.742876         0.026682        -0.183473
 C         3.238225         0.255013        -1.596535
 O         1.830480         0.454675        -1.376756
 C         2.581693         0.283383         0.866405
 H         0.034819        -0.340255         1.375932
 H        -0.328302         1.165828         0.336061
 H        -0.653028        -0.533270        -0.215853
 H         1.338283        -2.051577         0.660515
 H         2.017689        -2.151317        -0.942677
 H         3.782490        -1.623781         2.377683
 H         4.668669         0.467683         0.168351
 H         3.580198         1.174419        -2.189815
 H         3.478400        -0.655460        -2.222545
 H         2.544510         1.234987         1.378261
