19
Iteration:  4003charge 0 multiplicity 1
 C        -0.019625         0.132718         0.232956
 C         1.458374        -0.107275        -0.065972
 C         2.001289        -1.600699        -0.112413
 C         3.294628        -1.094576         0.594983
 O         4.086448        -1.862659         1.532572
 C         3.761471         0.071609        -0.126006
 C         3.149133         0.198025        -1.559057
 O         1.747017         0.619512        -1.290405
 C         2.668333         0.263837         0.848030
 H        -0.210909        -0.242437         1.161969
 H        -0.275049         1.155221        -0.011938
 H        -0.638395        -0.396156        -0.499824
 H         1.318246        -2.188306         0.582974
 H         2.120178        -1.936135        -1.210018
 H         4.320148        -2.723253         1.155989
 H         4.823923         0.426735         0.015351
 H         3.725057         1.019405        -2.131647
 H         3.239511        -0.824984        -1.982814
 H         2.618820         0.998655         1.672926
