19
Iteration:  2016charge 0 multiplicity 1
 C         0.131786         0.185299         0.513382
 C         1.444390        -0.093173        -0.155569
 C         1.928687        -1.651244        -0.042349
 C         3.236220        -1.125169         0.601932
 O         3.896815        -1.770474         1.636524
 C         3.802823         0.062035        -0.239809
 C         3.194129         0.471467        -1.628216
 O         1.792583         0.264378        -1.551973
 C         2.719359         0.240058         0.779417
 H         0.036759        -0.325103         1.537491
 H        -0.122805         1.282910         0.735932
 H        -0.755599        -0.182472         0.001460
 H         1.283867        -2.258273         0.728309
 H         2.115593        -2.083133        -1.137565
 H         4.789166        -2.079865         1.352757
 H         4.634499         0.510657         0.193769
 H         3.470719         1.473054        -1.649520
 H         3.646669        -0.312267        -2.329761
 H         2.516072         0.748479         1.628126
