19
Iteration:  2932charge 0 multiplicity 1
 C         0.093947         0.154706         0.216826
 C         1.477590        -0.181607        -0.148364
 C         1.937751        -1.641732         0.054857
 C         3.207935        -1.099301         0.642237
 O         4.134677        -1.878220         1.456517
 C         3.735483         0.036559        -0.171975
 C         3.146627         0.517936        -1.574047
 O         1.713165         0.363285        -1.464920
 C         2.707786         0.203625         0.957565
 H        -0.153910        -0.199251         1.172742
 H         0.024419         1.234822         0.201180
 H        -0.571265         0.212377        -0.633788
 H         1.314138        -2.199393         0.801980
 H         1.957515        -2.213161        -0.989620
 H         3.889790        -1.532294         2.332647
 H         4.808928         0.298484         0.197861
 H         3.425440         1.669003        -1.692702
 H         3.515136         0.079939        -2.535236
 H         2.680418         0.744473         1.914181
