19
Iteration:  4145charge 0 multiplicity 1
 C         0.032991         0.084301         0.266003
 C         1.485958        -0.051187        -0.125962
 C         1.878419        -1.521207        -0.055206
 C         3.247319        -1.148967         0.653939
 O         4.093790        -1.865546         1.551178
 C         3.762956        -0.008677        -0.159747
 C         3.207510         0.286203        -1.543994
 O         1.769606         0.541652        -1.381322
 C         2.658051         0.285122         0.844023
 H        -0.063083        -0.312546         1.295722
 H        -0.451348         1.133285         0.038510
 H        -0.599293        -0.622596        -0.414947
 H         1.232215        -2.067873         0.642234
 H         2.021674        -1.915450        -1.018514
 H         4.570498        -2.456099         0.928838
 H         4.715534         0.446460         0.198187
 H         3.596118         1.176532        -2.003717
 H         3.203059        -0.619658        -2.105119
 H         2.822471         1.070232         1.546755
