19
Iteration:  3769
 C        -0.053532         0.175658         0.341371
 C         1.425086        -0.135301        -0.149203
 C         1.957850        -1.616695        -0.086152
 C         3.284736        -1.156069         0.573849
 O         4.050873        -1.934620         1.495794
 C         3.727169         0.091542        -0.124018
 C         3.227425         0.399058        -1.514665
 O         1.798965         0.414754        -1.373181
 C         2.618408         0.295516         0.835762
 H        -0.182882        -0.472015         1.236313
 H        -0.027134         1.200466         0.446674
 H        -0.890483         0.146941        -0.273949
 H         1.246456        -2.266981         0.599767
 H         2.195804        -1.945813        -1.137975
 H         4.965816        -1.631909         1.313981
 H         4.765626         0.330366         0.222435
 H         3.754796         1.391824        -1.834539
 H         3.626897        -0.332778        -2.357639
 H         2.833684         0.996235         1.667951
