19
Iteration:  1713charge 0 multiplicity 1
 C        -0.035071         0.458020         0.267807
 C         1.403522        -0.231717        -0.142850
 C         1.863666        -1.728124        -0.020170
 C         3.172650        -1.197685         0.580101
 O         4.255568        -1.700704         1.451552
 C         3.851900         0.059439        -0.148465
 C         3.164642         0.542763        -1.471288
 O         1.807194         0.106008        -1.472259
 C         2.599392         0.169354         0.859102
 H        -0.113819         0.210365         1.367462
 H         0.310911         1.392533        -0.102182
 H        -0.875011         0.326614        -0.338064
 H         1.316949        -2.152991         0.864906
 H         1.838126        -2.523493        -0.769582
 H         3.892006        -1.663158         2.348706
 H         4.883192         0.228818         0.190012
 H         3.226015         1.708898        -1.507986
 H         3.699169         0.179593        -2.341342
 H         2.714550         0.678375         1.882507
