19
Iteration:  4221charge 0 multiplicity 1
 C         0.046529         0.319541         0.284611
 C         1.444143        -0.196393        -0.101674
 C         1.944058        -1.714034        -0.048890
 C         3.156832        -1.150417         0.679782
 O         4.087722        -1.732753         1.510763
 C         3.806584         0.009736        -0.166247
 C         3.207584         0.483338        -1.536380
 O         1.791464         0.318769        -1.440704
 C         2.643304         0.197013         0.829733
 H        -0.243451         0.056240         1.332188
 H         0.304694         1.428263         0.617901
 H        -0.772249         0.110675        -0.509027
 H         1.331094        -2.322045         0.643137
 H         2.172775        -2.077288        -0.991488
 H         4.341344        -2.550098         1.040876
 H         4.749644         0.230293         0.277398
 H         3.419803         1.482663        -1.732393
 H         3.424956        -0.141861        -2.446954
 H         2.356607         0.769088         1.723068
