19
Iteration:  2582charge 0 multiplicity 1
 C         0.070719         0.140114         0.192433
 C         1.460816        -0.131390        -0.092248
 C         1.901057        -1.616385         0.074326
 C         3.226635        -1.071581         0.650148
 O         4.192807        -1.821505         1.464747
 C         3.776119         0.071223        -0.169998
 C         3.183524         0.416855        -1.561900
 O         1.685037         0.336292        -1.412664
 C         2.688929         0.228659         0.877307
 H        -0.188905         0.220260         1.275337
 H        -0.027547         1.212355        -0.231911
 H        -0.731299        -0.243701        -0.513841
 H         1.262244        -2.227950         0.759024
 H         1.904497        -2.151424        -0.874124
 H         3.506385        -2.346056         1.943603
 H         4.900685         0.248970         0.062087
 H         3.574251         1.404591        -1.857320
 H         3.539409        -0.140662        -2.426997
 H         2.666543         1.083092         1.757034
