19
Iteration:  3368
 C         0.071421         0.243509         0.218727
 C         1.478975        -0.244135        -0.121025
 C         1.941337        -1.714981         0.100259
 C         3.207134        -1.137659         0.591288
 O         3.977315        -1.816771         1.456606
 C         3.802971         0.093961        -0.199891
 C         3.161607         0.591521        -1.428886
 O         1.790936         0.303129        -1.462953
 C         2.667146         0.206055         0.859434
 H        -0.147628         0.021848         1.296968
 H         0.091355         1.231490        -0.109648
 H        -0.807669        -0.353287        -0.168183
 H         1.359387        -2.289350         0.880651
 H         1.890688        -2.448814        -0.860031
 H         4.842098        -2.071230         1.085790
 H         4.863128         0.412491         0.256621
 H         3.563474         1.673903        -1.433371
 H         3.519259         0.393685        -2.404640
 H         2.700193         0.930763         1.682353
