19
Iteration:  2603charge 0 multiplicity 1
 C         0.011493         0.373811         0.271723
 C         1.421546        -0.181739        -0.070582
 C         1.961916        -1.706828         0.075244
 C         3.276039        -1.216139         0.536996
 O         4.128891        -1.748266         1.491370
 C         3.765870         0.074376        -0.211816
 C         3.183486         0.512866        -1.505430
 O         1.791890         0.203814        -1.431971
 C         2.628472         0.246373         0.754985
 H        -0.198364         0.062168         1.338276
 H        -0.355119         1.447244         0.045298
 H        -0.717915        -0.227863        -0.369784
 H         1.528502        -2.244267         0.883738
 H         1.943055        -2.398761        -0.769185
 H         3.850839        -2.568577         1.913482
 H         4.572136         0.580526         0.420352
 H         3.544072         1.507518        -1.709752
 H         3.666223         0.156968        -2.375348
 H         2.594042         0.907602         1.817084
