19
Iteration:  3488
 C         0.060573         0.158806         0.228988
 C         1.491400        -0.189704        -0.067580
 C         1.893658        -1.688774         0.050599
 C         3.225940        -1.114636         0.564429
 O         3.954385        -1.868339         1.470843
 C         3.794684         0.088981        -0.179478
 C         3.219889         0.610072        -1.501564
 O         1.776075         0.275151        -1.369397
 C         2.686081         0.275996         0.829850
 H        -0.152766        -0.116724         1.300797
 H        -0.082023         1.175856        -0.038987
 H        -0.715441        -0.338628        -0.399266
 H         1.419941        -2.129126         0.904758
 H         1.917638        -2.307731        -0.882276
 H         4.876179        -1.974768         1.172673
 H         4.788817         0.342849         0.097828
 H         3.519496         1.664095        -1.645097
 H         3.593917         0.192415        -2.472838
 H         2.812278         1.034865         1.605874
