19
Iteration:  4781charge 0 multiplicity 1
 C        -0.013370         0.249932         0.067807
 C         1.453704        -0.030738         0.010082
 C         1.871907        -1.558208         0.122038
 C         3.193042        -1.096197         0.655844
 O         4.234313        -1.832379         1.222905
 C         3.752740         0.054059        -0.108200
 C         3.216810         0.080771        -1.482797
 O         1.842877         0.468036        -1.333021
 C         2.607254         0.325518         0.912383
 H        -0.624542        -0.211909         0.918846
 H        -0.302741         1.312159         0.087734
 H        -0.697696        -0.215969        -0.707972
 H         1.367599        -1.994368         0.991704
 H         1.857841        -2.048475        -0.768181
 H         3.809776        -2.537225         1.771889
 H         4.849838         0.296390         0.101190
 H         3.619385         0.754878        -2.225352
 H         3.315510        -0.952534        -2.024860
 H         2.736593         0.885146         1.854863
