19
Iteration:  4286charge 0 multiplicity 1
 C         0.053925         0.170491         0.182523
 C         1.486828        -0.078313        -0.009929
 C         1.973078        -1.596590         0.092627
 C         3.247047        -1.104815         0.667312
 O         3.979100        -2.018305         1.360149
 C         3.743702         0.040798        -0.112154
 C         3.172251         0.402405        -1.543569
 O         1.797396         0.340973        -1.395040
 C         2.670616         0.424555         0.823279
 H        -0.341704         0.112019         1.220047
 H        -0.255300         1.257870        -0.147771
 H        -0.714943        -0.467762        -0.393142
 H         1.441885        -2.369707         0.810761
 H         2.100133        -1.963194        -0.935939
 H         4.906822        -1.756426         1.422055
 H         4.703211         0.354244         0.117439
 H         3.475470         1.448646        -1.697748
 H         3.534670        -0.399159        -2.276343
 H         2.692304         1.258623         1.604781
