19
Iteration:  4746charge 0 multiplicity 1
 C         0.081661         0.175561         0.300848
 C         1.478890        -0.056637        -0.059347
 C         2.012675        -1.590666         0.019026
 C         3.247041        -1.117031         0.636521
 O         4.023681        -1.950586         1.503127
 C         3.816472         0.010071        -0.199684
 C         3.157408         0.312607        -1.538148
 O         1.744858         0.479607        -1.438776
 C         2.643304         0.368960         0.722848
 H         0.085452        -0.006569         1.357707
 H        -0.176501         1.234832         0.155609
 H        -0.576995        -0.524673        -0.358539
 H         1.445463        -2.149995         0.719059
 H         2.021892        -2.188686        -0.795627
 H         3.404731        -2.408856         2.122698
 H         4.752632         0.406203         0.060664
 H         3.544577         1.277253        -1.917056
 H         3.470295        -0.611130        -2.170166
 H         2.624816         1.026196         1.572456
