19
Iteration:   514charge 0 multiplicity 1
 C         0.042618         0.218330         0.214825
 C         1.443563        -0.151039        -0.101033
 C         2.025871        -1.711168         0.041878
 C         3.269396        -1.123521         0.563416
 O         4.038891        -1.739213         1.515618
 C         3.831218        -0.032718        -0.215862
 C         3.182038         0.556656        -1.509210
 O         1.769368         0.251754        -1.433308
 C         2.619053         0.209048         0.837331
 H        -0.426424        -0.441023         0.992103
 H         0.103924         1.289514         0.630407
 H        -0.635052         0.318555        -0.628014
 H         1.442673        -2.107396         0.879184
 H         2.004553        -2.374867        -0.860815
 H         3.466639        -2.097192         2.244292
 H         4.773087         0.492526         0.055031
 H         3.356811         1.666623        -1.416395
 H         3.467454         0.158868        -2.409791
 H         2.694540         1.046369         1.580147
