19
Iteration:   272
 C        -0.119710         0.009616         0.020320
 C         1.471032        -0.080472        -0.085310
 C         1.966464        -1.518298         0.129609
 C         3.232749        -0.998869         0.700608
 O         4.103865        -1.997250         1.317168
 C         3.794012         0.029818        -0.066392
 C         3.236228         0.197391        -1.458264
 O         1.781998         0.538252        -1.354825
 C         2.628292         0.389359         0.913449
 H        -0.417457        -0.130292         1.084715
 H        -0.383114         1.047006        -0.271700
 H        -0.676139        -0.831396        -0.627164
 H         1.351403        -1.916626         0.877343
 H         2.075237        -2.041695        -0.812028
 H         4.931919        -1.511231         1.343607
 H         4.725195         0.591884         0.050418
 H         3.542877         1.080251        -2.042564
 H         3.385751        -0.655591        -2.198219
 H         2.919792         1.117686         1.720996
