19
Iteration:   670
 C         0.080730         0.275514         0.243927
 C         1.416068        -0.125076        -0.149023
 C         1.982372        -1.689025        -0.062359
 C         3.289526        -1.109301         0.631742
 O         4.114108        -1.814991         1.481144
 C         3.767519         0.151491        -0.098954
 C         3.201868         0.463780        -1.497295
 O         1.740452         0.216110        -1.462428
 C         2.575989         0.218446         0.866222
 H        -0.093497        -0.318775         1.182838
 H         0.150579         1.364291         0.431834
 H        -0.720895         0.025882        -0.466279
 H         1.536074        -2.352123         0.656835
 H         2.012239        -2.144424        -1.061609
 H         3.541356        -2.233345         2.131520
 H         4.781987         0.548961         0.243536
 H         3.434217         1.515884        -1.842478
 H         3.692885        -0.233893        -2.163423
 H         2.366148         0.923749         1.736465
