19
Iteration:   560charge 0 multiplicity 1
 C        -0.031935         0.160787         0.165199
 C         1.430775        -0.129536        -0.128898
 C         1.987493        -1.558571         0.039673
 C         3.309254        -1.018834         0.703502
 O         4.212937        -1.825036         1.362239
 C         3.703927         0.121268        -0.018624
 C         3.218597         0.123101        -1.513792
 O         1.784396         0.512755        -1.457349
 C         2.535303         0.260322         0.926472
 H        -0.394829        -0.453751         1.074937
 H        -0.345432         1.264669         0.278754
 H        -0.704492        -0.190320        -0.643675
 H         1.438099        -2.134698         0.684949
 H         2.202994        -2.110266        -0.866580
 H         3.879575        -2.753084         1.362511
 H         4.667621         0.459597         0.280380
 H         3.688736         0.907944        -2.071628
 H         3.353444        -0.798817        -1.898115
 H         2.563516         1.064054         1.603313
