19
Iteration:  1881
 C         0.068203         0.334954         0.244947
 C         1.462091        -0.190036        -0.118455
 C         1.924321        -1.685017         0.140452
 C         3.239220        -1.136039         0.649939
 O         4.095960        -1.942437         1.337473
 C         3.771038         0.124756        -0.167996
 C         3.167360         0.590425        -1.479837
 O         1.851374         0.103364        -1.485367
 C         2.540297         0.345929         0.830113
 H        -0.025253        -0.004526         1.219468
 H         0.139338         1.359949         0.361361
 H        -0.661154        -0.070999        -0.407517
 H         1.368383        -2.070376         1.029367
 H         1.830681        -2.357812        -0.726567
 H         4.136629        -1.755929         2.283664
 H         4.768477         0.397279         0.137256
 H         3.151419         1.695499        -1.578064
 H         3.685642         0.131795        -2.328549
 H         2.520920         1.210974         1.538478
