19
Iteration:  3688
 C         0.034976         0.203668         0.178417
 C         1.457374        -0.154934        -0.066674
 C         1.879592        -1.625880        -0.022217
 C         3.210854        -1.120270         0.633268
 O         4.128802        -1.906601         1.418058
 C         3.679086         0.066656        -0.110355
 C         3.220915         0.453825        -1.480845
 O         1.803294         0.383099        -1.396603
 C         2.660337         0.262272         0.926144
 H        -0.190325         0.133690         1.254840
 H        -0.175063         1.321254         0.024141
 H        -0.653380        -0.580306        -0.268457
 H         1.251944        -2.186838         0.586052
 H         1.855427        -2.150926        -0.981454
 H         4.868045        -2.035445         0.802876
 H         4.725807         0.398972         0.088414
 H         3.472082         1.546500        -1.658289
 H         3.647452        -0.242846        -2.309219
 H         2.705256         0.893093         1.795478
