19
Iteration:   382charge 0 multiplicity 1
 C        -0.033139         0.116430         0.176201
 C         1.453909        -0.172756        -0.119446
 C         1.984863        -1.639420         0.021291
 C         3.343141        -1.153397         0.610725
 O         4.069593        -1.795604         1.646533
 C         3.765942         0.095142        -0.224007
 C         3.210875         0.432623        -1.585350
 O         1.776209         0.426161        -1.404028
 C         2.628078         0.319008         0.836392
 H        -0.260133        -0.586493         1.020532
 H        -0.398781         1.131336         0.562092
 H        -0.733548        -0.170218        -0.724185
 H         1.422675        -2.051586         0.788840
 H         1.918192        -2.248930        -0.860227
 H         4.061516        -2.738140         1.345813
 H         4.648469         0.503213         0.225459
 H         3.573730         1.444173        -1.965240
 H         3.554158        -0.363865        -2.296060
 H         2.582009         0.777357         1.803046
