19
Iteration:   940
 C         0.205837         0.211317         0.366121
 C         1.495495        -0.148660        -0.128954
 C         2.024359        -1.682471        -0.001520
 C         3.199527        -1.119777         0.661303
 O         4.009198        -1.854972         1.519763
 C         3.780825         0.192665        -0.165667
 C         3.168778         0.541520        -1.527986
 O         1.715142         0.208209        -1.527593
 C         2.591562         0.266273         0.766256
 H         0.083953         0.181732         1.550908
 H         0.049673         1.326149         0.010013
 H        -0.562715        -0.491694        -0.125556
 H         1.477325        -2.356040         0.639660
 H         2.234112        -2.276798        -0.855662
 H         3.339495        -2.467194         1.930123
 H         4.821317         0.382952         0.130661
 H         3.328331         1.682132        -1.686237
 H         3.727439         0.092507        -2.392350
 H         2.454283         0.888344         1.648496
