19
Iteration:  4071charge 0 multiplicity 1
 C         0.051112         0.323615         0.296004
 C         1.441500        -0.101293        -0.101967
 C         1.852683        -1.624545         0.086854
 C         3.187095        -1.164615         0.643663
 O         4.104381        -1.870558         1.445163
 C         3.720655         0.149564        -0.153605
 C         3.256107         0.557615        -1.493500
 O         1.825553         0.148831        -1.517078
 C         2.633365         0.181139         0.885883
 H        -0.098907        -0.305192         1.074466
 H        -0.042741         1.367172         0.353875
 H        -0.743253         0.095914        -0.382297
 H         1.334774        -2.209681         0.876770
 H         1.916004        -2.251213        -0.955091
 H         4.732476        -2.322621         0.846074
 H         4.730165         0.420623         0.175417
 H         3.186486         1.722755        -1.699971
 H         3.765735         0.010320        -2.378556
 H         2.768204         0.901663         1.647527
