19
Iteration:   753
 C        -0.079105         0.137322         0.122250
 C         1.455562        -0.098295        -0.080714
 C         1.998329        -1.693129         0.018716
 C         3.263345        -1.116889         0.632502
 O         4.119303        -1.803942         1.418439
 C         3.833223         0.051911        -0.144998
 C         3.157937         0.340354        -1.511949
 O         1.750229         0.460631        -1.295798
 C         2.699644         0.251573         0.827959
 H        -0.483951        -0.187022         1.118607
 H        -0.220974         1.235891        -0.065876
 H        -0.420477        -0.363602        -0.779458
 H         1.468788        -2.237547         0.874235
 H         1.930960        -2.381504        -0.835055
 H         3.703288        -1.852087         2.306355
 H         4.765982         0.552541         0.180037
 H         3.444546         1.283160        -2.019268
 H         3.329737        -0.303524        -2.371574
 H         2.768431         1.022654         1.631622
