19
Iteration:  2992charge 0 multiplicity 1
 C         0.033552         0.181442         0.180696
 C         1.499203        -0.087232        -0.171629
 C         1.955623        -1.601869         0.051618
 C         3.205128        -1.083619         0.661640
 O         4.134912        -1.952275         1.217050
 C         3.710699         0.222214        -0.017458
 C         3.175904         0.279069        -1.434074
 O         1.767726         0.381496        -1.404624
 C         2.622468         0.301980         0.923973
 H        -0.457207        -0.156651         1.112701
 H        -0.112522         1.257500         0.038084
 H        -0.459297        -0.494224        -0.477070
 H         1.452439        -2.150162         0.874814
 H         2.055293        -2.263143        -0.761998
 H         4.424895        -1.621645         2.076098
 H         4.706514         0.605161         0.246725
 H         3.681227         1.077542        -1.961468
 H         3.444260        -0.734769        -1.950203
 H         2.530921         0.818837         1.821855
