19
Iteration:   873
 C        -0.094743         0.116424        -0.006567
 C         1.441093        -0.075697        -0.077151
 C         1.947025        -1.651420         0.122631
 C         3.255025        -1.065707         0.669374
 O         4.254169        -1.845380         1.352698
 C         3.711861         0.070105        -0.208007
 C         3.134133         0.171356        -1.523161
 O         1.790361         0.587195        -1.231104
 C         2.637372         0.292309         0.915276
 H        -0.625269        -0.650879         0.716615
 H        -0.278010         1.216346         0.332595
 H        -0.257260        -0.162393        -1.123129
 H         1.395547        -2.308200         0.765984
 H         2.183738        -2.111871        -0.792864
 H         4.094887        -2.076078         2.268670
 H         4.646357         0.480303         0.106046
 H         3.728344         0.952816        -2.132597
 H         3.259219        -0.833441        -1.986726
 H         2.902074         1.095556         1.560470
