19
Iteration:  2082charge 0 multiplicity 1
 C        -0.134351         0.239085         0.063574
 C         1.400030        -0.116213        -0.047747
 C         1.849125        -1.541720         0.119930
 C         3.317628        -1.117231         0.598177
 O         4.226708        -1.856300         1.329112
 C         3.748237         0.087990        -0.073729
 C         3.207679         0.223911        -1.477024
 O         1.800170         0.398125        -1.327580
 C         2.697140         0.328176         0.949083
 H        -0.621827        -0.204749         0.967547
 H        -0.329119         1.303504        -0.200830
 H        -0.624283        -0.328449        -0.752813
 H         1.383770        -2.169663         0.957778
 H         1.878798        -2.112544        -0.897680
 H         4.668674        -2.564249         0.852314
 H         4.638458         0.641495         0.156797
 H         3.491371         1.104410        -2.057079
 H         3.347183        -0.762206        -2.025157
 H         2.856643         0.930279         1.761686
