19
Iteration:   184
 C         0.170067         0.244617         0.323868
 C         1.475276        -0.218062        -0.183923
 C         1.949900        -1.715835        -0.107356
 C         3.228603        -1.169873         0.617166
 O         3.974972        -1.778406         1.671597
 C         3.772266         0.096068        -0.200425
 C         3.176232         0.567700        -1.556582
 O         1.786144         0.305555        -1.446358
 C         2.549834         0.146343         0.806601
 H        -0.071562        -0.244583         1.291168
 H         0.261764         1.310308         0.444378
 H        -0.743260        -0.079195        -0.347823
 H         1.445216        -2.329153         0.619799
 H         1.862741        -2.401350        -0.961515
 H         4.849849        -1.372816         1.592038
 H         4.817738         0.388290         0.149524
 H         3.393033         1.646827        -1.694019
 H         3.715049         0.120868        -2.447189
 H         2.557197         0.855224         1.723874
