19
Iteration:  3101charge 0 multiplicity 1
 C         0.044009         0.139220         0.319474
 C         1.484330        -0.137400        -0.081342
 C         2.016334        -1.543677        -0.131368
 C         3.267193        -1.083968         0.604709
 O         4.024156        -1.962217         1.445669
 C         3.716657         0.162242        -0.075581
 C         3.210385         0.275337        -1.544288
 O         1.773008         0.390602        -1.431990
 C         2.579519         0.323109         0.853190
 H        -0.070507        -0.437477         1.245168
 H         0.029371         1.176252         0.715666
 H        -0.717998        -0.036713        -0.448823
 H         1.268155        -2.172780         0.532222
 H         2.112928        -2.059566        -1.122593
 H         4.759542        -1.548346         1.944642
 H         4.755014         0.669290         0.245074
 H         3.469099         1.334886        -1.820404
 H         3.469197        -0.631531        -2.145094
 H         2.485474         0.976693         1.657801
