19
Iteration:  4420
 C         0.076236         0.230348         0.298176
 C         1.484646        -0.136124        -0.101985
 C         1.866331        -1.651092         0.106569
 C         3.165825        -1.067189         0.545026
 O         3.947538        -1.908919         1.429152
 C         3.769462         0.126840        -0.169329
 C         3.241052         0.476095        -1.493255
 O         1.841679         0.270154        -1.507450
 C         2.693495         0.264198         0.908277
 H         0.084842         0.022826         1.324883
 H        -0.241346         1.212032        -0.049812
 H        -0.668945        -0.457876        -0.132110
 H         1.382878        -2.265426         0.883433
 H         1.823314        -2.381812        -0.691956
 H         4.872805        -1.574939         1.374745
 H         4.892744         0.262948        -0.000927
 H         3.411924         1.594027        -1.676922
 H         3.638142        -0.208496        -2.322030
 H         2.744825         0.843850         1.782600
