19
Iteration:  3200
 C         0.048692         0.180520         0.378433
 C         1.482185        -0.172784        -0.115232
 C         1.983643        -1.655744        -0.079936
 C         3.262524        -1.137464         0.543768
 O         3.981515        -1.832617         1.486611
 C         3.801721         0.232615        -0.107078
 C         3.253055         0.502183        -1.541514
 O         1.824874         0.302025        -1.420742
 C         2.556461         0.182731         0.844343
 H        -0.137502         0.008031         1.436926
 H         0.002487         1.290044         0.210935
 H        -0.702608        -0.384484        -0.127674
 H         1.456698        -2.327374         0.758468
 H         1.827854        -2.222305        -1.057540
 H         4.117901        -2.722922         1.102190
 H         4.693821         0.798484         0.367421
 H         3.417205         1.612332        -1.884454
 H         3.563691        -0.276903        -2.283654
 H         2.341930         0.878068         1.714901
