19
Iteration:  1044charge 0 multiplicity 1
 C        -0.091269         0.148426         0.138819
 C         1.429500        -0.147580        -0.109350
 C         2.058190        -1.531239         0.060029
 C         3.288178        -1.032636         0.687871
 O         4.175938        -1.839717         1.342054
 C         3.735065         0.168711        -0.098750
 C         3.198002         0.178484        -1.517981
 O         1.758190         0.433467        -1.312253
 C         2.595957         0.300700         0.889605
 H        -0.408742        -0.625271         0.775131
 H        -0.133246         1.144724         0.523263
 H        -0.514288         0.223511        -0.879537
 H         1.474387        -2.207971         0.763088
 H         2.176892        -2.149441        -0.948125
 H         3.711251        -2.674658         1.557069
 H         4.753057         0.398366         0.049761
 H         3.718965         0.932109        -2.213786
 H         3.351550        -0.882331        -1.948348
 H         2.505227         1.082550         1.612707
