19
Iteration:  3629charge 0 multiplicity 1
 C         0.168384         0.073038         0.449916
 C         1.544755        -0.147288        -0.100149
 C         2.039162        -1.664155        -0.224920
 C         3.246813        -1.161913         0.617547
 O         3.858904        -1.769280         1.643091
 C         3.807105         0.059870        -0.186608
 C         3.235437         0.436849        -1.580657
 O         1.643637         0.500885        -1.410446
 C         2.692768         0.276837         0.782295
 H         0.025664        -0.712382         1.300073
 H        -0.117495         1.103006         0.694802
 H        -0.536764        -0.128179        -0.406677
 H         1.308405        -2.288104         0.305950
 H         2.291319        -2.031600        -1.170499
 H         4.031905        -2.688947         1.347949
 H         4.768604         0.329031         0.142042
 H         3.535039         1.367396        -1.996550
 H         3.377767        -0.251004        -2.369356
 H         2.595444         0.875904         1.712926
