19
Iteration:   885
 C        -0.010090         0.090074         0.004906
 C         1.429780        -0.123242        -0.083864
 C         1.892763        -1.596716         0.016396
 C         3.235606        -1.100934         0.708440
 O         4.271148        -1.788128         1.328674
 C         3.735220         0.098739        -0.073960
 C         3.118130         0.144613        -1.530188
 O         1.814186         0.562147        -1.318328
 C         2.677416         0.300454         0.970583
 H        -0.334184        -0.618329         0.857393
 H        -0.269485         1.133851         0.386893
 H        -0.732587        -0.024473        -0.805103
 H         1.301028        -2.112525         0.772097
 H         1.860056        -2.221930        -0.857001
 H         3.936673        -1.953391         2.236403
 H         4.736463         0.398591         0.000794
 H         3.546311         0.916591        -2.240567
 H         3.074224        -0.800503        -2.125417
 H         2.722684         0.901960         1.826511
