19
Iteration:  4188charge 0 multiplicity 1
 C         0.042801         0.109269         0.173615
 C         1.478517        -0.092639        -0.053575
 C         2.003325        -1.570302         0.016868
 C         3.297914        -1.109037         0.615956
 O         4.005569        -1.894952         1.501755
 C         3.814520         0.133205        -0.172237
 C         3.147831         0.275311        -1.570843
 O         1.761474         0.495528        -1.347452
 C         2.698172         0.292653         0.875731
 H        -0.361086        -0.610730         0.902636
 H        -0.232436         1.213097         0.375546
 H        -0.723797         0.006644        -0.659437
 H         1.384548        -2.026215         0.817062
 H         1.932195        -2.210811        -0.793564
 H         3.938502        -2.788576         1.144505
 H         4.754026         0.638382         0.093975
 H         3.468281         1.092470        -2.148504
 H         3.214975        -0.673376        -2.106808
 H         2.701184         1.045326         1.652449
