19
Iteration:  1248charge 0 multiplicity 1
 C         0.179228         0.195960         0.451805
 C         1.506550        -0.224601        -0.200616
 C         1.958694        -1.648688        -0.142657
 C         3.212497        -1.094136         0.621996
 O         4.032909        -1.771035         1.545987
 C         3.735153         0.142999        -0.147553
 C         3.243244         0.398322        -1.542487
 O         1.740362         0.284252        -1.484886
 C         2.573736         0.221604         0.795195
 H        -0.104560        -0.430468         1.237407
 H         0.300968         1.236968         0.853877
 H        -0.592602         0.273822        -0.340991
 H         1.270785        -2.223405         0.571606
 H         2.130462        -2.241177        -1.130803
 H         3.597823        -1.737607         2.434583
 H         4.773088         0.540118         0.156307
 H         3.559445         1.456378        -1.564531
 H         3.568709        -0.142021        -2.544013
 H         2.354923         0.900346         1.677670
