19
Iteration:  3083charge 0 multiplicity 1
 C         0.050234         0.092010         0.485588
 C         1.445640        -0.085189        -0.175285
 C         2.058268        -1.667096        -0.111392
 C         3.256221        -1.089957         0.646258
 O         3.908675        -1.948033         1.499018
 C         3.822263         0.068574        -0.144383
 C         3.290931         0.429772        -1.532136
 O         1.727127         0.427914        -1.500797
 C         2.591219         0.335139         0.777112
 H        -0.212095        -0.539902         1.353497
 H         0.006048         1.176743         0.867281
 H        -0.679159        -0.286987        -0.218571
 H         1.692209        -2.472832         0.402477
 H         2.285466        -2.077897        -1.067901
 H         4.490184        -1.420539         2.091973
 H         4.765565         0.582859         0.131085
 H         3.603143         1.386415        -1.889789
 H         3.307703        -0.499615        -2.149114
 H         2.522868         1.220053         1.516585
