19
Iteration:   563charge 0 multiplicity 1
 C        -0.023895         0.159039         0.173865
 C         1.375028        -0.158347        -0.116251
 C         2.033579        -1.551129         0.032446
 C         3.303806        -1.042820         0.701193
 O         4.200301        -1.835022         1.347752
 C         3.712463         0.123792        -0.011374
 C         3.219663         0.126846        -1.487207
 O         1.779669         0.525518        -1.455696
 C         2.536321         0.309509         0.907691
 H        -0.371785        -0.355829         1.091050
 H        -0.314524         1.202059         0.201751
 H        -0.640601        -0.253217        -0.718705
 H         1.455903        -2.207232         0.697603
 H         2.103850        -2.092722        -0.891466
 H         3.898578        -2.748224         1.392018
 H         4.720061         0.529178         0.215270
 H         3.792981         0.831620        -2.044491
 H         3.350996        -0.940225        -1.888163
 H         2.587053         1.146306         1.633966
