19
Iteration:   359charge 0 multiplicity 1
 C         0.166073         0.132996         0.362880
 C         1.481634        -0.206710        -0.172795
 C         1.961787        -1.676250        -0.048220
 C         3.186660        -1.129518         0.676119
 O         3.932820        -1.704477         1.559537
 C         3.798037         0.148142        -0.156020
 C         3.227449         0.464608        -1.489373
 O         1.774863         0.256444        -1.531861
 C         2.620215         0.262069         0.836105
 H        -0.146379        -0.560693         1.163370
 H         0.102137         1.156729         0.814544
 H        -0.631624         0.136600        -0.522911
 H         1.232585        -2.205582         0.516015
 H         2.145982        -2.116106        -1.007153
 H         4.374249        -2.425814         1.069382
 H         4.753008         0.511069         0.163515
 H         3.386484         1.579773        -1.703186
 H         3.782713        -0.107357        -2.248076
 H         2.510702         1.003037         1.574517
