19
Iteration:  4197charge 0 multiplicity 1
 C        -0.011837         0.189308         0.196635
 C         1.502871        -0.059125        -0.080684
 C         1.968738        -1.615573        -0.040603
 C         3.316778        -1.118008         0.617417
 O         4.077384        -1.906721         1.563557
 C         3.703366         0.128458        -0.168827
 C         3.166734         0.298174        -1.545163
 O         1.734507         0.434453        -1.388973
 C         2.700859         0.264931         0.871343
 H        -0.394876        -0.355318         1.121076
 H        -0.036025         1.221403         0.640071
 H        -0.477818        -0.021864        -0.796401
 H         1.444761        -2.133264         0.828883
 H         2.064524        -2.109204        -1.020569
 H         4.022026        -2.794354         1.190514
 H         4.727306         0.560444         0.149661
 H         3.524468         1.267662        -1.821456
 H         3.369664        -0.521414        -2.347882
 H         2.735931         1.136108         1.433844
