19
Iteration:  2795charge 0 multiplicity 1
 C        -0.012665         0.312564         0.173891
 C         1.411534        -0.142730        -0.091090
 C         1.917123        -1.696416         0.119169
 C         3.259269        -1.150622         0.613678
 O         4.245381        -1.793830         1.344537
 C         3.758577        -0.045805        -0.167634
 C         3.228526         0.514090        -1.453306
 O         1.776534         0.231387        -1.419711
 C         2.568354         0.272623         0.879538
 H        -0.334832        -0.067281         1.169237
 H        -0.142558         1.419537         0.081352
 H        -0.589538         0.105733        -0.716017
 H         1.434201        -2.306938         0.912934
 H         1.782838        -2.304493        -0.744089
 H         3.770937        -2.121778         2.136510
 H         4.749416         0.429886         0.100430
 H         3.352813         1.598565        -1.518515
 H         3.566893         0.065262        -2.404509
 H         2.639300         1.154561         1.654185
