19
Iteration:  1618
 C         0.042055         0.063801         0.150345
 C         1.473186        -0.038125        -0.116320
 C         1.945628        -1.603299         0.015492
 C         3.223945        -1.089645         0.724705
 O         4.159108        -1.769047         1.442197
 C         3.796821         0.044611        -0.234309
 C         3.142883         0.141527        -1.544850
 O         1.764411         0.592845        -1.307685
 C         2.640915         0.279303         0.845257
 H        -0.212233        -0.321588         1.134028
 H        -0.314139         1.038816        -0.060533
 H        -0.552979        -0.473732        -0.542482
 H         1.258007        -2.076224         0.709208
 H         1.924920        -2.262158        -0.844409
 H         3.668775        -2.159694         2.206454
 H         4.800594         0.499185        -0.049270
 H         3.581303         0.801646        -2.207489
 H         3.117797        -0.879037        -2.023373
 H         2.914026         0.838983         1.808436
