19
Iteration:   958charge 0 multiplicity 1
 C         0.130547         0.209264         0.333899
 C         1.487836        -0.232512        -0.144688
 C         1.953597        -1.694928        -0.020830
 C         3.296149        -1.127368         0.569146
 O         3.998828        -1.825660         1.581253
 C         3.766207         0.091349        -0.181736
 C         3.144029         0.628281        -1.515342
 O         1.800159         0.213821        -1.511029
 C         2.698655         0.264446         0.830217
 H         0.137504         0.221686         1.419607
 H        -0.217564         1.157010        -0.053489
 H        -0.813582        -0.318026         0.103416
 H         1.343437        -2.158146         0.805797
 H         1.902344        -2.369633        -0.949472
 H         3.307632        -2.359151         2.049175
 H         4.662270         0.614184        -0.014326
 H         3.129644         1.719187        -1.669406
 H         3.476288         0.393789        -2.513314
 H         2.713543         0.964586         1.611449
