19
Iteration:  4095charge 0 multiplicity 1
 C         0.174059         0.402393         0.345760
 C         1.466140        -0.276915        -0.074101
 C         1.906999        -1.729874        -0.031281
 C         3.313812        -1.147483         0.503382
 O         3.954990        -1.817343         1.479502
 C         3.766999         0.162893        -0.119509
 C         3.217891         0.500612        -1.471281
 O         1.780251         0.218849        -1.437128
 C         2.547244         0.222019         0.794413
 H         0.001613         0.151486         1.395728
 H         0.283536         1.357008        -0.023311
 H        -0.689980         0.094333        -0.171361
 H         1.513378        -2.189042         0.870996
 H         1.788744        -2.462526        -0.975358
 H         4.881633        -2.007824         1.214166
 H         4.666457         0.592174         0.121482
 H         3.217025         1.635520        -1.584185
 H         3.630315        -0.023252        -2.394212
 H         2.360148         0.564001         1.863388
