19
Iteration:  1500charge 0 multiplicity 1
 C        -0.005006         0.193590         0.099455
 C         1.437702        -0.133094        -0.008614
 C         1.990604        -1.594598         0.113364
 C         3.225439        -1.068924         0.685844
 O         4.184354        -1.823007         1.341715
 C         3.770569         0.098649        -0.128694
 C         3.178381         0.203045        -1.563877
 O         1.794685         0.390602        -1.327390
 C         2.597393         0.322016         0.865607
 H        -0.618586         0.057509         1.007227
 H        -0.087517         1.240301        -0.248773
 H        -0.665127        -0.272899        -0.693036
 H         1.342164        -2.005414         0.882891
 H         1.933748        -2.184857        -0.811038
 H         3.785216        -2.605940         1.738108
 H         4.727002         0.489784         0.209258
 H         3.548118         1.222919        -2.026412
 H         3.274136        -0.605195        -2.301436
 H         2.903933         1.085354         1.627050
