19
Iteration:  4488charge 0 multiplicity 1
 C         0.009361         0.187326         0.158137
 C         1.426883        -0.088991        -0.055650
 C         1.897323        -1.577924         0.021499
 C         3.256420        -1.056168         0.601956
 O         4.030408        -1.850028         1.390015
 C         3.812293         0.100545        -0.140451
 C         3.199577         0.170689        -1.545506
 O         1.829364         0.485132        -1.317084
 C         2.636962         0.257557         0.946780
 H        -0.376675        -0.407030         1.049504
 H        -0.388259         1.231639         0.247753
 H        -0.570788        -0.136185        -0.669967
 H         1.484940        -2.150903         0.779008
 H         1.836622        -2.283639        -0.790713
 H         4.874534        -1.992003         0.938392
 H         4.873544         0.456072        -0.045895
 H         3.691403         0.973720        -2.104452
 H         3.430008        -0.856855        -1.957249
 H         2.659770         0.844603         1.916609
