19
Iteration:  1635charge 0 multiplicity 1
 C        -0.076368         0.014647         0.166597
 C         1.495358        -0.063448        -0.020048
 C         1.921128        -1.526994         0.044841
 C         3.261780        -1.143494         0.612127
 O         4.164302        -1.779272         1.465455
 C         3.744912         0.056261        -0.130805
 C         3.113824         0.122067        -1.663851
 O         1.850052         0.597730        -1.369746
 C         2.712107         0.395958         0.919953
 H        -0.365900        -0.488104         1.132478
 H        -0.391536         1.111266         0.174906
 H        -0.359623        -0.794752        -0.562640
 H         1.248742        -2.093121         0.789686
 H         1.918061        -2.071057        -0.952999
 H         3.660599        -2.526676         1.850267
 H         4.754390         0.155919         0.108718
 H         3.794724         0.805368        -2.335399
 H         3.044663        -0.877727        -2.078495
 H         2.544626         1.192715         1.565478
