19
Iteration:  3867charge 0 multiplicity 1
 C         0.041481         0.149110         0.153283
 C         1.451221        -0.113552        -0.064031
 C         1.863529        -1.646460         0.041264
 C         3.203629        -1.113736         0.684728
 O         4.134066        -1.858993         1.322854
 C         3.768272         0.149450        -0.106680
 C         3.264192         0.233962        -1.532648
 O         1.802661         0.535540        -1.288587
 C         2.598527         0.265463         0.881495
 H        -0.346959        -0.224542         1.205189
 H        -0.230268         1.220717         0.073581
 H        -0.447015        -0.250799        -0.750004
 H         1.215151        -2.126879         0.855397
 H         2.015289        -2.247254        -0.857459
 H         4.516547        -2.382500         0.587676
 H         4.772764         0.572570         0.325939
 H         3.518397         1.218817        -2.107229
 H         3.324977        -0.734974        -2.008942
 H         2.526265         0.796220         1.810773
