19
Iteration:  3998charge 0 multiplicity 1
 C         0.009202         0.154215         0.248029
 C         1.487881        -0.103364        -0.111862
 C         2.027433        -1.631939        -0.134685
 C         3.251706        -1.120961         0.613150
 O         4.043529        -1.824727         1.519012
 C         3.783261         0.067589        -0.143574
 C         3.140183         0.209531        -1.500731
 O         1.736413         0.600303        -1.287516
 C         2.692159         0.285848         0.847117
 H        -0.180485        -0.354020         1.327816
 H        -0.287961         1.208772         0.005806
 H        -0.708807        -0.515379        -0.316863
 H         1.327579        -2.291962         0.352267
 H         2.109043        -2.075199        -1.078738
 H         4.353886        -2.644945         1.073375
 H         4.752247         0.371904         0.132681
 H         3.723596         0.915609        -2.040337
 H         3.227992        -0.668428        -2.174411
 H         2.641956         1.077620         1.582088
