19
Iteration:  1783charge 0 multiplicity 1
 C        -0.038702         0.030687         0.293719
 C         1.466490        -0.028116        -0.029721
 C         1.953966        -1.463183        -0.005912
 C         3.299010        -1.011623         0.680324
 O         4.082552        -1.882632         1.351148
 C         3.780833         0.147573        -0.119188
 C         3.239662         0.126486        -1.584991
 O         1.811957         0.424872        -1.431626
 C         2.611353         0.371407         0.910441
 H        -0.256180        -0.576448         1.124693
 H        -0.392312         1.053440         0.234711
 H        -0.434017        -0.450707        -0.633895
 H         1.374561        -2.023856         0.814226
 H         1.839595        -2.092178        -0.943329
 H         3.540977        -2.613573         1.668092
 H         4.629642         0.660196         0.302837
 H         3.745140         0.799460        -2.250780
 H         3.339462        -0.968988        -1.907505
 H         2.697508         1.218897         1.507436
