19
Iteration:  4901charge 0 multiplicity 1
 C         0.135375         0.153363         0.328350
 C         1.498951        -0.092941        -0.162331
 C         1.973022        -1.600839        -0.051160
 C         3.210006        -1.094241         0.754827
 O         4.066027        -1.849013         1.515751
 C         3.786510        -0.035465        -0.166592
 C         3.141141         0.220257        -1.660338
 O         1.791251         0.530799        -1.375915
 C         2.598463         0.362177         0.771347
 H         0.047286        -0.061509         1.452139
 H        -0.119612         1.212046         0.193745
 H        -0.640877        -0.455802        -0.091808
 H         1.228161        -2.051171         0.654211
 H         2.091985        -2.209398        -1.093300
 H         3.476020        -2.399013         2.049585
 H         4.726215         0.447783         0.177978
 H         3.735637         0.991908        -2.160446
 H         3.167457        -0.737524        -2.331899
 H         2.595394         1.163022         1.508259
