19
Iteration:  2615
 C         0.072740         0.333612         0.308379
 C         1.425060        -0.176579        -0.106327
 C         1.918851        -1.756433         0.100829
 C         3.267534        -1.094552         0.533788
 O         4.111839        -1.711240         1.440992
 C         3.768470         0.078915        -0.130967
 C         3.277102         0.531985        -1.500259
 O         1.780618         0.151012        -1.452402
 C         2.559501         0.180947         0.748531
 H        -0.169562         0.154063         1.376673
 H         0.204526         1.475899         0.210408
 H        -0.781370        -0.083868        -0.333855
 H         1.503127        -2.247847         0.990446
 H         1.877238        -2.325362        -0.812595
 H         3.632906        -2.538310         1.625277
 H         4.761579         0.531454         0.250455
 H         3.233827         1.590350        -1.482827
 H         3.563567        -0.019685        -2.362659
 H         2.569394         0.993790         1.631197
