19
Iteration:  1956
 C        -0.066730         0.163674         0.206788
 C         1.485664        -0.065097        -0.100330
 C         1.990240        -1.571451        -0.045961
 C         3.307691        -1.125289         0.643080
 O         4.198813        -1.821388         1.590983
 C         3.702499         0.067060        -0.204456
 C         3.102450         0.161196        -1.625025
 O         1.766474         0.574045        -1.362796
 C         2.684313         0.230349         0.922602
 H        -0.292462        -0.123144         1.212301
 H        -0.304873         1.198466         0.046464
 H        -0.653497        -0.444199        -0.510114
 H         1.378577        -2.110623         0.609932
 H         2.059885        -2.161959        -0.893730
 H         3.942406        -2.761936         1.473630
 H         4.734415         0.401303         0.055565
 H         3.636894         0.950031        -2.249023
 H         3.192254        -0.687131        -2.221000
 H         2.536198         1.132639         1.639377
