19
Iteration:  1535charge 0 multiplicity 1
 C        -0.022464         0.310014         0.270373
 C         1.449493        -0.130480        -0.132892
 C         1.884405        -1.720078         0.164624
 C         3.153959        -1.124877         0.628021
 O         4.162090        -1.799297         1.438875
 C         3.754974         0.102514        -0.161683
 C         3.205014         0.546007        -1.592453
 O         1.872608         0.124918        -1.447274
 C         2.662600         0.261683         0.769854
 H        -0.145348         0.073206         1.330235
 H         0.116853         1.449754         0.324440
 H        -0.615254        -0.181116        -0.585440
 H         1.213896        -1.956416         1.070757
 H         1.862780        -2.536357        -0.642304
 H         3.720948        -2.517619         1.910237
 H         4.792669         0.383215         0.264901
 H         3.130476         1.739047        -1.717145
 H         3.728718         0.197711        -2.481748
 H         2.730093         0.940699         1.667684
