19
Iteration:  1544charge 0 multiplicity 1
 C         0.076793         0.309174         0.308393
 C         1.455587        -0.227198        -0.091938
 C         1.833992        -1.687765         0.145501
 C         3.202237        -1.114783         0.647651
 O         4.095112        -1.761021         1.403236
 C         3.786683         0.075518        -0.224000
 C         3.257663         0.590105        -1.531770
 O         1.852674         0.073141        -1.502651
 C         2.635067         0.291990         0.760224
 H        -0.284039        -0.035734         1.301934
 H         0.101369         1.429798         0.318434
 H        -0.853737         0.016695        -0.272733
 H         1.340386        -2.136431         0.992958
 H         1.860627        -2.444511        -0.636863
 H         3.578556        -2.322772         1.997120
 H         4.664639         0.559844         0.269516
 H         3.299994         1.748238        -1.494386
 H         3.743524         0.188661        -2.432326
 H         2.557024         0.894883         1.729789
