19
Iteration:  4740charge 0 multiplicity 1
 C         0.091152         0.175094         0.336924
 C         1.475157        -0.090268        -0.094627
 C         1.963312        -1.606699        -0.010025
 C         3.295605        -1.092340         0.588872
 O         3.958729        -1.904377         1.528700
 C         3.817907        -0.004071        -0.198009
 C         3.144176         0.360778        -1.549043
 O         1.768302         0.427251        -1.438996
 C         2.692342         0.338144         0.757389
 H         0.164232         0.009196         1.473603
 H        -0.136105         1.241628         0.219500
 H        -0.476960        -0.528064        -0.198395
 H         1.375123        -2.196308         0.788289
 H         2.033239        -2.156017        -1.099352
 H         3.385504        -2.276861         2.217067
 H         4.860689         0.402576         0.055270
 H         3.580057         1.303620        -1.878815
 H         3.396053        -0.381795        -2.262299
 H         2.570526         0.999031         1.632282
