19
Iteration:  1717
 C         0.007861         0.431932         0.239887
 C         1.382160        -0.217172        -0.130887
 C         1.862248        -1.749552        -0.005037
 C         3.147157        -1.189722         0.582660
 O         4.286105        -1.706391         1.463713
 C         3.759743         0.035078        -0.169606
 C         3.191315         0.567261        -1.457977
 O         1.803146         0.124588        -1.496765
 C         2.646324         0.178172         0.870103
 H        -0.221000         0.405924         1.306029
 H         0.250076         1.553321         0.070824
 H        -0.905674         0.176746        -0.387011
 H         1.332380        -2.150882         0.943145
 H         1.953681        -2.552560        -0.798680
 H         3.868223        -1.648936         2.359547
 H         4.851784         0.158110         0.185470
 H         3.266570         1.628505        -1.419541
 H         3.638915         0.179788        -2.450826
 H         2.721352         0.622193         1.922972
