19
Iteration:  4817charge 0 multiplicity 1
 C         0.005818         0.396156         0.159764
 C         1.443726        -0.119025        -0.090767
 C         1.881791        -1.632159         0.190265
 C         3.240269        -1.076948         0.701389
 O         4.222373        -1.917142         1.297901
 C         3.672867         0.090383        -0.147984
 C         3.248703         0.337147        -1.570771
 O         1.815421         0.271414        -1.397104
 C         2.565713         0.248637         0.863571
 H        -0.430852         0.076200         1.178495
 H         0.144793         1.514849         0.143369
 H        -0.476639         0.188527        -0.733109
 H         1.259266        -2.232752         0.901668
 H         1.809343        -2.224358        -0.735145
 H         4.048252        -2.204614         2.226043
 H         4.714238         0.273813         0.070800
 H         3.593960         1.350817        -1.836669
 H         3.514797        -0.416913        -2.308336
 H         2.656201         0.818806         1.773780
