19
Iteration:  1401
 C         0.156813         0.309972         0.288677
 C         1.419351        -0.206880        -0.073050
 C         1.901116        -1.692490         0.005192
 C         3.301826        -1.162712         0.630219
 O         4.092856        -1.809470         1.573864
 C         3.730859         0.060588        -0.203483
 C         3.148238         0.509253        -1.545261
 O         1.795988         0.236463        -1.494657
 C         2.640526         0.299185         0.734083
 H        -0.349258        -0.085803         1.053106
 H         0.179958         1.332057         0.480361
 H        -0.547309        -0.021221        -0.409438
 H         1.408031        -2.335101         0.751309
 H         1.914614        -2.227935        -0.982958
 H         3.505433        -2.093642         2.297547
 H         4.665832         0.474871         0.157536
 H         3.267883         1.627973        -1.624142
 H         3.621674         0.089543        -2.380205
 H         2.672863         0.745910         1.712297
