19
Iteration:  4494charge 0 multiplicity 1
 C        -0.028353         0.173470         0.204783
 C         1.498739        -0.091526        -0.048383
 C         1.888062        -1.594198         0.015160
 C         3.268364        -1.089544         0.576238
 O         4.024814        -1.848979         1.426646
 C         3.776378         0.084899        -0.133148
 C         3.231722         0.198274        -1.520764
 O         1.826206         0.466996        -1.337938
 C         2.653670         0.310662         0.901036
 H        -0.299924        -0.502481         0.980711
 H        -0.297828         1.217232         0.311920
 H        -0.663153        -0.146043        -0.685573
 H         1.308534        -2.189155         0.865795
 H         1.699572        -2.074593        -1.015723
 H         4.851465        -2.074337         0.981473
 H         4.810383         0.434837         0.022358
 H         3.603385         1.105633        -2.121075
 H         3.394928        -0.741239        -2.084087
 H         2.653682         0.932679         1.759582
