19
Iteration:  4734
 C         0.119642         0.186771         0.402909
 C         1.513432        -0.137217        -0.142182
 C         1.916615        -1.622439        -0.061112
 C         3.279528        -1.113404         0.581752
 O         3.921317        -1.848262         1.540849
 C         3.824141         0.038982        -0.201247
 C         3.190614         0.390588        -1.583368
 O         1.770822         0.376806        -1.420116
 C         2.726773         0.292145         0.816777
 H         0.014891        -0.051206         1.432409
 H        -0.207478         1.218731         0.188028
 H        -0.679908        -0.528862        -0.039819
 H         1.374862        -2.172496         0.655381
 H         1.970550        -2.042057        -0.999968
 H         3.248091        -2.044331         2.209642
 H         4.808262         0.341778        -0.021538
 H         3.590687         1.405307        -1.872345
 H         3.388639        -0.241069        -2.534611
 H         2.712151         0.979961         1.651342
