19
Iteration:   231charge 0 multiplicity 1
 C        -0.026605         0.149674         0.186943
 C         1.428928        -0.196738        -0.115072
 C         2.007235        -1.626274         0.042930
 C         3.281056        -1.037267         0.644580
 O         3.967113        -1.877475         1.392401
 C         3.795307         0.131234        -0.138255
 C         3.251787         0.330716        -1.514178
 O         1.824422         0.380809        -1.355466
 C         2.584984         0.307796         0.881927
 H        -0.293190        -0.282442         1.123220
 H        -0.021541         1.228163         0.307112
 H        -0.706369        -0.137303        -0.508104
 H         1.356272        -2.236718         0.658959
 H         2.042907        -2.314891        -0.850344
 H         4.901779        -1.676294         1.514263
 H         4.737014         0.616856         0.128728
 H         3.652104         1.226319        -1.906282
 H         3.493861        -0.475155        -2.236835
 H         2.435978         1.034797         1.678517
