19
Iteration:  2261charge 0 multiplicity 1
 C         0.066057         0.182197         0.068196
 C         1.473586        -0.155482        -0.007143
 C         1.914169        -1.622765         0.200563
 C         3.227011        -1.126750         0.709094
 O         4.170295        -1.837392         1.308151
 C         3.683794         0.075994        -0.161656
 C         3.179587         0.304442        -1.523707
 O         1.816059         0.466168        -1.311855
 C         2.582998         0.303787         0.906149
 H        -0.466333         0.208312         1.001766
 H        -0.007645         1.175162        -0.347185
 H        -0.519280        -0.336225        -0.668178
 H         1.290492        -2.240027         0.802773
 H         1.882450        -2.198173        -0.828881
 H         4.744996        -2.312184         0.695456
 H         4.660540         0.380546         0.004751
 H         3.570276         1.160190        -2.004953
 H         3.232506        -0.542030        -2.275028
 H         2.447849         0.860970         1.759345
