19
Iteration:  3796charge 0 multiplicity 1
 C         0.267977         0.130561         0.455793
 C         1.549973        -0.149066        -0.158781
 C         1.984204        -1.781588        -0.116494
 C         3.210401        -1.180165         0.552874
 O         3.826454        -1.831335         1.568482
 C         3.752310         0.111283        -0.195226
 C         3.196575         0.498833        -1.547497
 O         1.706105         0.500345        -1.441954
 C         2.622467         0.185277         0.831547
 H         0.165982        -0.202364         1.496887
 H         0.013775         1.277180         0.346766
 H        -0.513594        -0.266132        -0.308564
 H         1.380603        -2.305548         0.591516
 H         2.230229        -2.215213        -1.075247
 H         4.760794        -1.536753         1.529687
 H         4.701258         0.528682         0.146284
 H         3.691673         1.428561        -1.613330
 H         3.517562        -0.202201        -2.401575
 H         2.648692         0.754874         1.760590
