19
Iteration:  4890
 C         0.093993         0.154546         0.420658
 C         1.503515        -0.138557        -0.154999
 C         1.908686        -1.583272        -0.043727
 C         3.218356        -1.095981         0.622938
 O         3.993652        -1.796433         1.592470
 C         3.789320        -0.014252        -0.246147
 C         3.285458         0.261253        -1.562385
 O         1.728400         0.500419        -1.410683
 C         2.674603         0.316268         0.696841
 H         0.262020        -0.037634         1.529295
 H        -0.131394         1.203597         0.219560
 H        -0.651611        -0.493260        -0.000284
 H         1.248807        -2.215992         0.592467
 H         2.078111        -2.265909        -0.994190
 H         3.479427        -2.491048         2.030627
 H         4.818095         0.355204        -0.018729
 H         3.659688         1.237266        -1.908306
 H         3.488337        -0.574854        -2.345541
 H         2.648094         0.977224         1.551947
