19
Iteration:  4824charge 0 multiplicity 1
 C         0.071338         0.419865         0.218908
 C         1.430646        -0.140253        -0.077468
 C         1.943373        -1.642283         0.166923
 C         3.209223        -1.147994         0.713484
 O         4.184544        -1.926928         1.331751
 C         3.698901         0.062339        -0.189740
 C         3.239980         0.390525        -1.572664
 O         1.776163         0.256346        -1.439635
 C         2.575587         0.301886         0.844302
 H        -0.409313        -0.026180         1.114633
 H         0.172692         1.500548         0.121199
 H        -0.622891         0.101192        -0.627261
 H         1.304190        -2.132513         0.901829
 H         1.979422        -2.350003        -0.663056
 H         3.840916        -2.127324         2.229318
 H         4.710098         0.416881         0.221919
 H         3.571056         1.425903        -1.751619
 H         3.697278        -0.232951        -2.444590
 H         2.500840         0.964591         1.736849
