19
Iteration:  3053
 C         0.210208         0.012408         0.359017
 C         1.566457        -0.162857        -0.141088
 C         1.951966        -1.652593        -0.095569
 C         3.228526        -1.168951         0.552278
 O         3.868941        -1.860523         1.619780
 C         3.770654         0.105144        -0.216598
 C         3.173902         0.496378        -1.571016
 O         1.741420         0.509010        -1.374097
 C         2.690871         0.222436         0.797553
 H         0.052485        -0.345790         1.391139
 H        -0.050363         1.083257         0.274494
 H        -0.445958        -0.401452        -0.470160
 H         1.361123        -2.241794         0.656574
 H         1.982138        -2.251587        -1.070606
 H         4.365761        -1.212322         2.137192
 H         4.736580         0.374981        -0.099658
 H         3.503882         1.503723        -1.971767
 H         3.220597        -0.329612        -2.284601
 H         2.532353         0.968605         1.659159
