19
Iteration:  4006
 C        -0.025874         0.117858         0.209605
 C         1.444882        -0.106266        -0.045478
 C         1.981328        -1.581565        -0.096564
 C         3.310267        -1.100403         0.600017
 O         4.104416        -1.876639         1.536739
 C         3.758165         0.082048        -0.135624
 C         3.161047         0.208324        -1.586645
 O         1.763496         0.621611        -1.299011
 C         2.645446         0.257304         0.860541
 H        -0.302627        -0.171065         1.248485
 H        -0.261302         1.178346         0.066767
 H        -0.571960        -0.373697        -0.601198
 H         1.405439        -2.123495         0.622432
 H         2.091384        -1.925874        -1.184937
 H         4.297558        -2.762800         1.164623
 H         4.820361         0.458641        -0.018228
 H         3.610306         0.976665        -2.150830
 H         3.218950        -0.840208        -1.943650
 H         2.643532         0.898041         1.699429
