19
Iteration:  1234
 C         0.119904         0.198237         0.310650
 C         1.464546        -0.181561        -0.108016
 C         2.026570        -1.672332        -0.029719
 C         3.264093        -1.139683         0.624761
 O         4.062117        -1.814067         1.517743
 C         3.787534         0.102032        -0.108303
 C         3.160931         0.441978        -1.575901
 O         1.721495         0.350320        -1.529831
 C         2.596992         0.274534         0.852128
 H        -0.277656        -0.514255         1.050282
 H         0.051888         1.236971         0.751098
 H        -0.619452         0.384829        -0.455112
 H         1.467655        -2.377071         0.690630
 H         2.005533        -2.229274        -1.049907
 H         3.533345        -1.925355         2.319499
 H         4.745926         0.414240         0.220788
 H         3.391736         1.420605        -2.169611
 H         3.683097        -0.392372        -2.140028
 H         2.576163         0.870691         1.747126
