19
Iteration:  1696charge 0 multiplicity 1
 C         0.119151         0.415597         0.269399
 C         1.421434        -0.228081        -0.079887
 C         1.867924        -1.725367         0.047613
 C         3.298182        -1.108286         0.553309
 O         4.140037        -1.766353         1.416379
 C         3.715487         0.131540        -0.143729
 C         3.223616         0.479863        -1.475478
 O         1.815984         0.115814        -1.451734
 C         2.585706         0.186918         0.791850
 H        -0.161756         0.271414         1.302479
 H         0.019489         1.529417         0.292590
 H        -0.747755        -0.050630        -0.288424
 H         1.440041        -2.334778         0.868865
 H         1.829933        -2.186247        -0.957722
 H         3.660414        -1.852940         2.258948
 H         4.667525         0.606135         0.242554
 H         3.341481         1.527119        -1.613413
 H         3.619940        -0.071405        -2.370544
 H         2.405205         0.878997         1.628803
