19
Iteration:  1727charge 0 multiplicity 1
 C         0.090664         0.423430         0.190044
 C         1.422105        -0.197323        -0.102622
 C         1.862340        -1.774093         0.106195
 C         3.211059        -1.187405         0.599959
 O         4.259099        -1.715596         1.445475
 C         3.633310        -0.015229        -0.182443
 C         3.195740         0.572257        -1.462400
 O         1.788876         0.188932        -1.506178
 C         2.656919         0.183025         0.859820
 H        -0.267772         0.241711         1.222278
 H         0.055292         1.511009         0.024244
 H        -0.660124        -0.073179        -0.442722
 H         1.232047        -2.370176         0.884751
 H         1.884383        -2.314958        -0.889223
 H         3.925288        -1.754732         2.366437
 H         4.741210         0.219462         0.052033
 H         3.316318         1.663317        -1.406643
 H         3.690474         0.206087        -2.432031
 H         2.596770         0.780139         1.845472
