19
Iteration:  2514
 C         0.069944         0.169570         0.242880
 C         1.500534        -0.143418        -0.082562
 C         1.951869        -1.650572        -0.025027
 C         3.214248        -1.094868         0.577254
 O         4.146129        -1.801064         1.481240
 C         3.694358         0.107174        -0.154424
 C         3.189633         0.256835        -1.546414
 O         1.762810         0.438884        -1.354651
 C         2.626085         0.335271         0.864596
 H        -0.056882        -0.488520         1.169930
 H        -0.208685         1.256562         0.523284
 H        -0.578143        -0.049452        -0.567244
 H         1.370051        -2.310112         0.494570
 H         2.266732        -2.139862        -0.978667
 H         3.623080        -2.360048         2.086883
 H         4.739609         0.248447        -0.061476
 H         3.499682         1.135475        -2.146297
 H         3.398561        -0.531889        -2.295265
 H         2.587059         1.031123         1.601826
