19
Iteration:  3001
 C         0.068498         0.174998         0.175263
 C         1.454876        -0.129160        -0.068853
 C         1.941819        -1.642578         0.005893
 C         3.217880        -1.101945         0.672051
 O         4.136421        -1.935994         1.285715
 C         3.739809         0.150466        -0.017394
 C         3.214245         0.269505        -1.504257
 O         1.756053         0.453728        -1.367620
 C         2.586922         0.335440         0.882473
 H        -0.175707        -0.124856         1.193738
 H        -0.236457         1.089205        -0.134313
 H        -0.461071        -0.409809        -0.585037
 H         1.340627        -2.295614         0.755397
 H         2.101861        -2.122584        -0.998817
 H         4.481823        -1.595448         2.119293
 H         4.617271         0.592580         0.240054
 H         3.529196         1.131238        -2.167768
 H         3.395534        -0.519885        -2.237150
 H         2.578946         1.038714         1.747729
