19
Iteration:  1707
 C        -0.017327         0.460481         0.287721
 C         1.424375        -0.250659        -0.144065
 C         1.863489        -1.717109         0.007087
 C         3.257005        -1.170334         0.574150
 O         4.191252        -1.702750         1.424725
 C         3.867879         0.073766        -0.122293
 C         3.162763         0.531379        -1.470363
 O         1.813749         0.098927        -1.448297
 C         2.573133         0.148972         0.830590
 H        -0.095064         0.186374         1.316653
 H         0.320135         1.506021        -0.031088
 H        -0.965300         0.224721        -0.331547
 H         1.273719        -2.209724         0.815808
 H         1.707636        -2.359686        -0.910098
 H         3.897574        -1.734316         2.366138
 H         4.912836         0.412129         0.182579
 H         3.162133         1.574147        -1.601863
 H         3.733788         0.083642        -2.349002
 H         2.543349         0.794152         1.722490
