19
Iteration:  3663charge 0 multiplicity 1
 C         0.127669         0.200027         0.422559
 C         1.476166        -0.191691        -0.165835
 C         1.998233        -1.737597        -0.120877
 C         3.244452        -1.129444         0.522842
 O         3.911601        -1.807586         1.569299
 C         3.772853         0.102217        -0.140128
 C         3.286359         0.538510        -1.555290
 O         1.747068         0.396018        -1.400978
 C         2.604610         0.185877         0.788391
 H         0.119227         0.192327         1.557502
 H         0.035552         1.329117         0.371553
 H        -0.771298        -0.404778         0.058999
 H         1.370336        -2.243408         0.604306
 H         2.068695        -2.325238        -0.986464
 H         4.537785        -2.419585         1.135399
 H         4.784965         0.493091         0.208706
 H         3.371865         1.581399        -1.735141
 H         3.611045        -0.110534        -2.324692
 H         2.343622         0.627390         1.760175
