19
Iteration:  2837
 C        -0.084060         0.153684         0.155561
 C         1.458895        -0.104799        -0.004349
 C         1.986755        -1.641775         0.108049
 C         3.272750        -1.040773         0.614896
 O         4.138157        -1.856502         1.288282
 C         3.764948         0.106776        -0.160233
 C         3.207053         0.248335        -1.559691
 O         1.830619         0.472550        -1.357230
 C         2.583491         0.274897         0.938629
 H        -0.246089        -0.241364         1.187048
 H        -0.439874         1.199491         0.089650
 H        -0.742593        -0.353117        -0.669845
 H         1.430211        -2.131026         0.920562
 H         2.127734        -2.305777        -0.706248
 H         3.649979        -2.324653         1.997807
 H         4.809624         0.431511         0.176745
 H         3.699277         1.090745        -2.055646
 H         3.481117        -0.526179        -2.310166
 H         2.599189         1.102818         1.720929
