19
Iteration:   464
 C         0.087246         0.171714         0.278985
 C         1.429430        -0.184652        -0.163487
 C         2.043347        -1.662371         0.031552
 C         3.205196        -1.047139         0.573599
 O         3.954406        -1.863333         1.479690
 C         3.705276         0.144664        -0.120739
 C         3.230918         0.402318        -1.504274
 O         1.849003         0.313026        -1.419976
 C         2.591584         0.291057         0.812296
 H        -0.004256         0.015441         1.353545
 H        -0.153369         1.162817        -0.023943
 H        -0.680260        -0.472852        -0.126990
 H         1.438159        -2.196950         0.823310
 H         2.116018        -2.225488        -0.882864
 H         4.902768        -1.594248         1.429900
 H         4.628445         0.548053         0.216300
 H         3.486427         1.468244        -1.631984
 H         3.650073        -0.271803        -2.385467
 H         2.380183         0.728898         1.740367
