19
Iteration:  1979
 C         0.045615         0.089434         0.351065
 C         1.513917        -0.116926        -0.092688
 C         2.031288        -1.666520        -0.024370
 C         3.238944        -1.088043         0.637406
 O         3.955754        -1.779682         1.637394
 C         3.815145         0.033275        -0.263427
 C         3.160126         0.308421        -1.599557
 O         1.733933         0.529096        -1.401385
 C         2.692929         0.289583         0.727726
 H         0.080329        -0.199981         1.373026
 H        -0.063268         1.162772         0.388141
 H        -0.742834        -0.430759        -0.215351
 H         1.485939        -2.315485         0.634909
 H         2.157557        -2.214447        -0.919575
 H         3.940592        -2.680005         1.257507
 H         4.768668         0.549924         0.053719
 H         3.629081         1.159049        -2.169749
 H         3.255914        -0.480856        -2.306849
 H         2.614953         1.028383         1.664915
