19
Iteration:  3737
 C         0.055781         0.164608         0.049131
 C         1.491709        -0.128603        -0.044613
 C         1.926583        -1.564697         0.147298
 C         3.227824        -1.064413         0.638299
 O         4.113186        -1.995643         1.240580
 C         3.724730         0.208525        -0.034850
 C         3.182762         0.303319        -1.544532
 O         1.804399         0.436456        -1.273142
 C         2.591002         0.302816         0.972420
 H        -0.525073        -0.465085         0.762411
 H        -0.030304         1.205212         0.204325
 H        -0.376374        -0.115634        -0.868800
 H         1.209554        -2.112342         0.926224
 H         1.912789        -2.323587        -0.701841
 H         4.943879        -1.879120         0.741438
 H         4.803387         0.429823         0.188437
 H         3.478814         1.123051        -2.257853
 H         3.143465        -0.703707        -2.203722
 H         2.495188         0.881810         1.906758
