19
Iteration:  2849
 C        -0.035965         0.101142         0.280006
 C         1.417934        -0.135083        -0.132765
 C         2.022801        -1.550091         0.005257
 C         3.258972        -1.054630         0.681454
 O         4.138649        -1.894880         1.324010
 C         3.739615         0.091501        -0.090245
 C         3.234687         0.213380        -1.496790
 O         1.807784         0.500112        -1.350913
 C         2.610200         0.353940         0.762947
 H        -0.486772        -0.237697         1.254796
 H        -0.209210         1.194397         0.148893
 H        -0.582872        -0.530952        -0.484988
 H         1.506575        -2.093558         0.807645
 H         1.984546        -2.129980        -0.857970
 H         3.620349        -2.421193         1.962195
 H         4.671833         0.561580         0.221214
 H         3.594501         1.077124        -2.002046
 H         3.288957        -0.761902        -1.978435
 H         2.639276         1.172567         1.601160
