19
Iteration:   694charge 0 multiplicity 1
 C        -0.046504         0.154054         0.246024
 C         1.415093        -0.137059        -0.064235
 C         2.031988        -1.647894         0.013850
 C         3.260728        -1.052480         0.668670
 O         4.131407        -1.833655         1.337932
 C         3.669872         0.175045        -0.079385
 C         3.289445         0.214238        -1.562109
 O         1.837627         0.412253        -1.382179
 C         2.559376         0.342657         0.850482
 H        -0.631440        -0.518257         0.916080
 H        -0.012755         1.212209         0.556759
 H        -0.599988         0.176333        -0.785283
 H         1.618940        -2.262869         0.743644
 H         2.077553        -2.135321        -0.905068
 H         3.632523        -2.514342         1.836858
 H         4.691282         0.472477         0.192906
 H         3.761230         1.097236        -1.975634
 H         3.559425        -0.663689        -2.052811
 H         2.384883         1.050927         1.664435
