19
Iteration:  3821charge 0 multiplicity 1
 C         0.063521         0.098432         0.436197
 C         1.475192        -0.183915        -0.135691
 C         1.990065        -1.639179        -0.153583
 C         3.265628        -1.117203         0.623107
 O         3.844369        -1.932835         1.623370
 C         3.905575         0.104684        -0.265218
 C         3.197280         0.489347        -1.611596
 O         1.778227         0.494379        -1.360862
 C         2.637177         0.222568         0.770644
 H         0.048002        -0.119772         1.585014
 H        -0.261817         1.187389         0.333595
 H        -0.704189        -0.496894        -0.172439
 H         1.492252        -2.227885         0.557281
 H         2.055339        -2.130075        -1.100006
 H         4.811709        -1.881167         1.498282
 H         4.844285         0.529934        -0.008746
 H         3.647473         1.502935        -1.736880
 H         3.370560        -0.216206        -2.373591
 H         2.453650         0.916886         1.619051
