19
Iteration:  3127
 C        -0.029516         0.215071         0.113433
 C         1.453459        -0.189149        -0.014636
 C         1.975592        -1.715834         0.102756
 C         3.213571        -1.114693         0.606954
 O         4.078931        -1.881880         1.315959
 C         3.759188         0.148783        -0.092577
 C         3.236016         0.337553        -1.523688
 O         1.774920         0.507074        -1.346101
 C         2.630867         0.234993         0.890112
 H        -0.508622        -0.218188         1.002035
 H        -0.171478         1.344202         0.172832
 H        -0.442995        -0.290896        -0.748023
 H         1.449380        -2.206386         0.828733
 H         2.056253        -2.365434        -0.740074
 H         4.969559        -1.482021         1.344295
 H         4.750579         0.313215         0.187556
 H         3.482994         1.259670        -1.897522
 H         3.403513        -0.592220        -2.051507
 H         2.615650         0.984131         1.761756
