19
Iteration:  2004
 C         0.206114         0.108362         0.465813
 C         1.560073        -0.122349        -0.098940
 C         1.928717        -1.653074        -0.070294
 C         3.142231        -1.108756         0.589351
 O         3.827055        -1.738833         1.630664
 C         3.784561         0.101310        -0.235486
 C         3.225055         0.432402        -1.601872
 O         1.756669         0.283988        -1.464163
 C         2.686209         0.310418         0.774950
 H         0.345100        -0.394636         1.461646
 H         0.073992         1.217019         0.660685
 H        -0.558871        -0.363463        -0.124606
 H         1.303852        -2.362229         0.596439
 H         1.983820        -2.207206        -1.082579
 H         4.562206        -2.208826         1.211456
 H         4.792220         0.413114        -0.046883
 H         3.424566         1.402354        -2.015639
 H         3.544534        -0.163021        -2.503404
 H         2.920458         0.877064         1.665843
