19
Iteration:  3416charge 0 multiplicity 1
 C         0.004286         0.090890         0.307118
 C         1.471449        -0.155679        -0.128323
 C         2.020807        -1.629811        -0.090259
 C         3.275672        -1.097637         0.549359
 O         3.990802        -1.816922         1.540729
 C         3.772400         0.131547        -0.141879
 C         3.224209         0.309144        -1.572125
 O         1.776841         0.538899        -1.364439
 C         2.622805         0.267140         0.896063
 H        -0.207831        -0.656189         1.050918
 H        -0.138688         1.171012         0.653128
 H        -0.806903        -0.102233        -0.460602
 H         1.470396        -2.131618         0.712953
 H         1.994097        -2.264766        -0.982238
 H         4.378203        -2.625072         1.168534
 H         4.692306         0.418263         0.158994
 H         3.572862         1.092567        -2.271068
 H         3.545884        -0.570467        -2.107649
 H         2.656294         0.891739         1.787124
