19
Iteration:  2151
 C        -0.033966         0.215523         0.470344
 C         1.438418        -0.205039        -0.080398
 C         2.026855        -1.700007        -0.128316
 C         3.289564        -1.147376         0.533228
 O         3.897210        -1.726812         1.656221
 C         3.819521         0.037379        -0.181225
 C         3.222771         0.425426        -1.605667
 O         1.792176         0.430758        -1.443745
 C         2.671552         0.201248         0.741436
 H         0.030963        -0.141690         1.459935
 H         0.031331         1.281039         0.414436
 H        -0.931473        -0.199055        -0.109702
 H         1.330372        -2.372703         0.361355
 H         2.135276        -1.991419        -1.263580
 H         4.622692        -2.345047         1.445527
 H         4.788714         0.435353         0.131623
 H         3.526992         1.427436        -1.690645
 H         3.466998        -0.186123        -2.547276
 H         2.883515         0.655537         1.774724
