19
Iteration:  3270
 C        -0.053924         0.043982         0.224084
 C         1.478750        -0.056209        -0.098945
 C         1.971620        -1.568109        -0.066386
 C         3.339928        -1.155275         0.563009
 O         3.985990        -1.823913         1.577601
 C         3.823236         0.077735        -0.158403
 C         3.143237         0.340559        -1.607644
 O         1.767425         0.603220        -1.360712
 C         2.692188         0.203906         0.912089
 H        -0.226544        -0.845728         0.902924
 H        -0.435379         0.947578         0.664428
 H        -0.658400        -0.404244        -0.617241
 H         1.367071        -2.070339         0.664289
 H         1.978768        -2.364978        -0.881098
 H         4.856575        -2.181954         1.291868
 H         4.877955         0.370858         0.079466
 H         3.565915         1.273331        -2.187230
 H         3.367227        -0.675526        -2.110835
 H         2.648674         0.609864         1.880488
