19
Iteration:  2910
 C         0.046863         0.209875         0.359271
 C         1.479407        -0.203924        -0.115402
 C         1.926385        -1.735249        -0.055661
 C         3.293794        -1.192244         0.544811
 O         4.056887        -1.781232         1.565279
 C         3.792449         0.087385        -0.186508
 C         3.167410         0.487127        -1.541609
 O         1.775603         0.421770        -1.359390
 C         2.661544         0.212533         0.705497
 H        -0.051093        -0.224415         1.307738
 H        -0.336446         1.189768         0.303228
 H        -0.602656        -0.061354        -0.463707
 H         1.513858        -2.395215         0.746514
 H         1.852064        -2.357802        -1.071982
 H         3.477981        -1.896339         2.349766
 H         4.909582         0.329223         0.051209
 H         3.440533         1.631971        -1.689887
 H         3.559294        -0.092792        -2.431397
 H         2.647462         0.989822         1.444245
