19
Iteration:  3395
 C         0.039333         0.138563         0.299014
 C         1.497887        -0.125665        -0.066510
 C         1.939351        -1.605825        -0.046057
 C         3.229156        -1.139568         0.683220
 O         4.028243        -1.907319         1.594012
 C         3.777400         0.127694        -0.218932
 C         3.213424         0.503779        -1.537400
 O         1.733203         0.340717        -1.431218
 C         2.688007         0.264229         0.789261
 H        -0.188724        -0.456343         1.197236
 H        -0.330644         1.243269         0.308912
 H        -0.525528        -0.253709        -0.630684
 H         1.224860        -2.220029         0.490198
 H         2.106978        -1.938794        -1.020655
 H         4.669933        -2.443623         1.089042
 H         4.656900         0.510220         0.099080
 H         3.574684         1.512650        -1.744867
 H         3.527319         0.023609        -2.526652
 H         2.623441         0.876149         1.677942
