19
Iteration:  4617
 C        -0.071521         0.149379         0.122871
 C         1.462427        -0.070490        -0.081828
 C         1.912744        -1.579444         0.132149
 C         3.219436        -1.072479         0.709351
 O         4.129825        -2.035663         1.321164
 C         3.689027         0.111210        -0.115674
 C         3.251779         0.238673        -1.577804
 O         1.841936         0.508093        -1.328807
 C         2.638094         0.383809         0.916416
 H        -0.313750        -0.349743         1.008136
 H        -0.284027         1.187725        -0.025632
 H        -0.580385        -0.461069        -0.664595
 H         1.211972        -1.876925         1.033005
 H         1.868292        -2.163940        -0.845453
 H         5.066352        -1.804310         1.190987
 H         4.691519         0.355803         0.149535
 H         3.773391         0.875703        -2.237024
 H         3.308517        -0.704095        -2.022849
 H         2.626078         1.205024         1.641244
