19
Iteration:  4757charge 0 multiplicity 1
 C         0.025841         0.188022         0.259950
 C         1.494651        -0.074703        -0.137349
 C         1.968506        -1.594942         0.059811
 C         3.249284        -1.097149         0.737009
 O         4.116484        -1.978541         1.424046
 C         3.733233         0.068551        -0.143855
 C         3.238464         0.210469        -1.605091
 O         1.739773         0.525160        -1.387241
 C         2.658914         0.380290         0.825810
 H        -0.369032        -0.105486         1.198994
 H        -0.250681         1.228293         0.055443
 H        -0.723249        -0.410341        -0.407871
 H         1.301561        -1.979471         0.789438
 H         2.107526        -2.201610        -0.750569
 H         3.506928        -2.568134         1.917788
 H         4.706180         0.436584         0.059434
 H         3.685684         1.064813        -2.152519
 H         3.278322        -0.660630        -2.367202
 H         2.777692         1.237262         1.480064
