19
Iteration:  1928charge 0 multiplicity 1
 C        -0.048433         0.227096         0.106487
 C         1.486899        -0.125218        -0.057580
 C         1.887863        -1.646899         0.114049
 C         3.179046        -1.069944         0.625663
 O         4.191409        -1.753144         1.259388
 C         3.725941         0.101742        -0.130150
 C         3.240244         0.200119        -1.515045
 O         1.799882         0.391485        -1.286514
 C         2.686770         0.302980         0.927062
 H        -0.474005        -0.026053         1.105035
 H        -0.208961         1.337287        -0.053968
 H        -0.363280        -0.438649        -0.687296
 H         1.378176        -2.196019         0.998760
 H         2.050383        -2.332364        -0.810895
 H         3.697897        -2.514556         1.637844
 H         4.723756         0.318521         0.290175
 H         3.547361         1.120465        -1.972373
 H         3.395211        -0.724731        -2.221563
 H         2.640011         1.121776         1.667894
