19
Iteration:  2822charge 0 multiplicity 1
 C         0.018071         0.188087         0.089073
 C         1.440532        -0.121615        -0.067163
 C         1.869444        -1.638657         0.130839
 C         3.221089        -1.133498         0.639253
 O         4.247162        -1.834623         1.334950
 C         3.737079         0.106087        -0.144467
 C         3.226355         0.396484        -1.580063
 O         1.754504         0.374699        -1.345505
 C         2.668741         0.288353         0.973108
 H        -0.507662        -0.175484         0.944165
 H        -0.104388         1.283686         0.000763
 H        -0.462733        -0.339170        -0.824469
 H         1.337958        -2.171858         0.950181
 H         1.622016        -2.280253        -0.830018
 H         3.775325        -2.290271         2.060957
 H         4.772224         0.408163         0.030685
 H         3.396375         1.422421        -2.041049
 H         3.369467        -0.546918        -2.108432
 H         2.749452         0.778790         1.864192
