19
Iteration:  3530charge 0 multiplicity 1
 C        -0.005373         0.357712         0.224350
 C         1.395608        -0.182197        -0.137590
 C         1.925358        -1.622486         0.057691
 C         3.270192        -1.143018         0.598823
 O         4.143149        -1.937697         1.342832
 C         3.712571         0.156112        -0.057138
 C         3.262467         0.516989        -1.396757
 O         1.809257         0.133839        -1.462846
 C         2.567856         0.264449         0.895646
 H        -0.190319         0.290905         1.372003
 H         0.027663         1.383464        -0.226240
 H        -0.907925        -0.222964        -0.125826
 H         1.372222        -2.197244         0.812430
 H         1.904587        -2.211025        -0.777840
 H         4.995398        -1.826133         0.899730
 H         4.652775         0.438291         0.395660
 H         3.160099         1.579732        -1.628299
 H         3.809302         0.134367        -2.324049
 H         2.533314         1.053255         1.665643
