19
Iteration:  3555
 C         0.056495         0.286939         0.137656
 C         1.435762        -0.149710        -0.019116
 C         1.925464        -1.708004         0.039190
 C         3.173632        -1.116967         0.649132
 O         4.155182        -1.867323         1.318593
 C         3.701381         0.140006        -0.075259
 C         3.249932         0.357833        -1.495808
 O         1.761451         0.355588        -1.349674
 C         2.587866         0.243606         0.959885
 H        -0.469039         0.079964         1.061462
 H         0.147154         1.328944        -0.197762
 H        -0.559986        -0.200478        -0.672212
 H         1.482132        -2.369618         0.743697
 H         2.044199        -2.222724        -0.942896
 H         4.908420        -1.688831         0.743765
 H         4.645444         0.354371         0.309814
 H         3.424895         1.327452        -1.999273
 H         3.641339        -0.309359        -2.291910
 H         2.638320         0.987590         1.769900
