19
Iteration:  1487
 C        -0.094779         0.212433         0.103717
 C         1.464592        -0.093555        -0.067836
 C         1.950955        -1.648938         0.062216
 C         3.262198        -1.028444         0.662102
 O         4.192189        -1.856071         1.340646
 C         3.722349         0.103341        -0.134182
 C         3.191743         0.160723        -1.542249
 O         1.813061         0.464924        -1.307644
 C         2.648171         0.362212         0.925673
 H        -0.144085        -0.116211         1.188626
 H        -0.397593         1.244148        -0.154204
 H        -0.538397        -0.480106        -0.585901
 H         1.464403        -2.282759         0.727634
 H         2.158677        -2.209940        -0.804599
 H         3.660390        -2.383296         1.989287
 H         4.750922         0.332753        -0.027455
 H         3.590393         0.852309        -2.342245
 H         3.381259        -0.899923        -1.880294
 H         2.395152         1.148548         1.615763
