19
Iteration:  3655
 C         0.115279         0.208652         0.487561
 C         1.434743        -0.272521        -0.190151
 C         2.005112        -1.698344        -0.186159
 C         3.294490        -1.140521         0.548258
 O         3.887094        -1.806005         1.648651
 C         3.735343         0.141560        -0.205503
 C         3.271574         0.515516        -1.565621
 O         1.800606         0.419660        -1.391389
 C         2.601855         0.197017         0.769314
 H         0.364478        -0.148570         1.494245
 H        -0.153782         1.335117         0.440725
 H        -0.833454        -0.246470         0.036854
 H         1.509504        -2.151834         0.609347
 H         2.073716        -2.280415        -1.120936
 H         4.323479        -2.597616         1.261560
 H         4.769555         0.524639         0.154935
 H         3.486283         1.659256        -1.729766
 H         3.486101        -0.077217        -2.597092
 H         2.604079         0.499609         1.808345
