19
Iteration:   405
 C        -0.026988         0.040966         0.043509
 C         1.508881        -0.139755        -0.057117
 C         1.996423        -1.666533         0.031506
 C         3.238182        -1.098025         0.678326
 O         4.101815        -1.752020         1.481476
 C         3.787371         0.084603        -0.180633
 C         3.138222         0.261019        -1.539230
 O         1.766455         0.571943        -1.290823
 C         2.643574         0.302556         0.911515
 H        -0.633413        -0.183912         0.979641
 H        -0.275490         1.156601        -0.213092
 H        -0.406898        -0.506065        -0.880047
 H         1.673177        -2.211051         0.818871
 H         2.091709        -2.286915        -0.828622
 H         4.064711        -2.651038         1.154455
 H         4.791779         0.244946         0.262290
 H         3.618031         1.143725        -2.033120
 H         3.163188        -0.624007        -2.248698
 H         2.735186         1.144406         1.661056
