19
Iteration:  1949
 C        -0.058918         0.143456         0.123164
 C         1.502098        -0.090286        -0.023867
 C         1.942448        -1.570013        -0.032819
 C         3.280487        -1.136408         0.647205
 O         4.225483        -1.800098         1.526407
 C         3.742427         0.051832        -0.171409
 C         3.106085         0.179784        -1.563862
 O         1.769252         0.550017        -1.353297
 C         2.655712         0.291358         0.869630
 H        -0.292374         0.025740         1.198423
 H        -0.108559         1.264077         0.099984
 H        -0.661377        -0.451002        -0.560143
 H         1.331364        -2.110879         0.780906
 H         2.031446        -2.103956        -1.055277
 H         3.934142        -2.721647         1.426076
 H         4.797278         0.377808        -0.028188
 H         3.579827         0.935373        -2.164409
 H         3.038081        -0.865392        -2.051803
 H         2.538965         0.976204         1.780303
