19
Iteration:  3838
 C        -0.003998         0.091777         0.352533
 C         1.466466        -0.046858        -0.038711
 C         2.012663        -1.582670        -0.086936
 C         3.279839        -1.136089         0.601515
 O         3.940966        -1.938672         1.530315
 C         3.742449         0.049650        -0.156420
 C         3.255063         0.369107        -1.554038
 O         1.739689         0.500496        -1.425242
 C         2.696810         0.285227         0.842293
 H        -0.146725        -0.278498         1.304758
 H        -0.377637         1.082569         0.149128
 H        -0.625014        -0.526574        -0.282944
 H         1.363149        -2.323766         0.494376
 H         2.227953        -1.916862        -1.144206
 H         4.840984        -2.159168         1.224992
 H         4.623296         0.596995         0.213571
 H         3.469158         1.312786        -2.000797
 H         3.520105        -0.368574        -2.416418
 H         2.955007         0.981533         1.626487
