19
Iteration:  4355
 C         0.114626         0.219996         0.249096
 C         1.492081        -0.135488        -0.124350
 C         1.924057        -1.645451        -0.055187
 C         3.200295        -1.134207         0.663527
 O         4.047257        -1.885175         1.510597
 C         3.737978         0.041420        -0.169137
 C         3.157037         0.304987        -1.570202
 O         1.784987         0.461109        -1.328117
 C         2.624052         0.262601         0.833603
 H        -0.162622        -0.499351         1.090578
 H         0.102378         1.391492         0.411577
 H        -0.630767         0.024898        -0.597970
 H         1.274059        -2.299807         0.491529
 H         2.122915        -1.999557        -1.066886
 H         4.760846        -1.266924         1.703952
 H         4.760339         0.472006         0.146424
 H         3.523924         1.219656        -1.903392
 H         3.344253        -0.525350        -2.276606
 H         2.721979         1.045053         1.524495
