19
Iteration:   910
 C        -0.003945         0.164889         0.271186
 C         1.391867        -0.089786        -0.062452
 C         1.937480        -1.653114         0.006965
 C         3.243153        -1.099348         0.605296
 O         4.171881        -1.773513         1.402550
 C         3.746792         0.112468        -0.106566
 C         3.287121         0.264543        -1.503113
 O         1.803761         0.415200        -1.421482
 C         2.559277         0.263331         0.810086
 H        -0.194042        -0.327103         1.180192
 H        -0.255758         1.185457         0.349777
 H        -0.695417        -0.207079        -0.420131
 H         1.486468        -2.420764         0.695085
 H         2.086259        -2.213496        -0.971016
 H         3.635507        -2.292594         2.018502
 H         4.732306         0.553080         0.181027
 H         3.617086         1.163195        -1.983719
 H         3.514490        -0.502858        -2.286177
 H         2.667382         0.995203         1.644889
