19
Iteration:   558charge 0 multiplicity 1
 C        -0.043132         0.160504         0.161792
 C         1.466533        -0.105899        -0.134763
 C         1.966342        -1.561400         0.038042
 C         3.302310        -1.013914         0.705302
 O         4.221701        -1.820640         1.373476
 C         3.699706         0.123275        -0.033508
 C         3.214506         0.134252        -1.522390
 O         1.790844         0.499116        -1.452808
 C         2.533581         0.233737         0.935140
 H        -0.383390        -0.470263         1.024129
 H        -0.324470         1.251977         0.333956
 H        -0.724287        -0.152045        -0.591890
 H         1.362852        -2.147036         0.753733
 H         2.253557        -2.148933        -0.887925
 H         3.867730        -2.730825         1.350269
 H         4.660831         0.447672         0.324288
 H         3.648767         0.980401        -2.124666
 H         3.367612        -0.819705        -1.971344
 H         2.540245         1.047589         1.628850
