19
Iteration:  2433
 C        -0.005146         0.248529         0.191026
 C         1.425868        -0.146000        -0.073719
 C         1.926656        -1.635871         0.113477
 C         3.190536        -1.097473         0.616954
 O         4.185122        -1.921837         1.219640
 C         3.735536         0.119918        -0.063628
 C         3.234683         0.430158        -1.479021
 O         1.839379         0.200502        -1.428169
 C         2.566257         0.396851         0.875520
 H        -0.286235         0.175154         1.224158
 H        -0.106460         1.289090         0.019827
 H        -0.822598        -0.422402        -0.225858
 H         1.593623        -2.222589         0.996265
 H         1.927775        -2.138858        -0.832312
 H         4.127042        -1.813316         2.194450
 H         4.733469         0.320645         0.344420
 H         3.452906         1.537481        -1.796555
 H         3.650576        -0.355213        -2.181593
 H         2.589559         1.117522         1.778050
