19
Iteration:  3812charge 0 multiplicity 1
 C         0.141636         0.108879         0.402348
 C         1.490060        -0.230156        -0.159862
 C         2.009269        -1.680134        -0.158435
 C         3.260280        -1.142993         0.566413
 O         3.809874        -1.882482         1.617302
 C         3.780501         0.075099        -0.194743
 C         3.179679         0.527147        -1.551821
 O         1.783036         0.512172        -1.368463
 C         2.685415         0.250902         0.766157
 H         0.317587        -0.287739         1.456516
 H         0.034542         1.177862         0.292689
 H        -0.777950        -0.386057         0.159941
 H         1.417509        -2.207590         0.673744
 H         2.097498        -2.301647        -1.067810
 H         4.780624        -1.826309         1.693055
 H         4.863232         0.304867        -0.033758
 H         3.337646         1.519236        -2.096378
 H         3.401973        -0.068432        -2.413022
 H         2.608022         0.845582         1.679706
