19
Iteration:  2567
 C         0.037300         0.128406         0.185864
 C         1.520385        -0.123840        -0.051856
 C         1.971274        -1.612336         0.060837
 C         3.217462        -1.084352         0.676795
 O         4.113873        -1.846782         1.353447
 C         3.735820         0.039396        -0.121836
 C         3.192348         0.308173        -1.561129
 O         1.763795         0.433400        -1.376009
 C         2.634156         0.369411         0.842375
 H        -0.184232        -0.140646         1.237773
 H        -0.311808         1.140739        -0.069156
 H        -0.423344        -0.621719        -0.405057
 H         1.330545        -2.086177         0.749675
 H         2.033674        -2.244050        -0.858510
 H         3.838291        -2.229026         2.203749
 H         4.686788         0.472189         0.037557
 H         3.425188         1.292845        -1.950792
 H         3.329829        -0.569776        -2.168552
 H         2.672842         1.055460         1.574402
