19
Iteration:   448charge 0 multiplicity 1
 C        -0.103716         0.118650         0.239981
 C         1.432973        -0.167942        -0.086108
 C         1.973647        -1.646289        -0.034417
 C         3.293991        -1.060887         0.601346
 O         4.063990        -1.840928         1.474579
 C         3.782068         0.119630        -0.038671
 C         3.309994         0.303830        -1.522939
 O         1.807513         0.432069        -1.430794
 C         2.541336         0.338271         0.844568
 H        -0.157796         0.182435         1.364860
 H        -0.398029         1.163104        -0.176344
 H        -0.748975        -0.663277        -0.248562
 H         1.448179        -2.197227         0.736753
 H         1.946632        -2.293905        -0.939127
 H         4.847964        -2.117280         0.976861
 H         4.792919         0.519783         0.226054
 H         3.636968         1.203963        -2.069156
 H         3.519610        -0.622718        -1.973862
 H         2.542991         1.056662         1.725672
