19
Iteration:  2779
 C         0.024936         0.332176         0.283024
 C         1.429331        -0.236932        -0.073563
 C         1.938158        -1.726207         0.093818
 C         3.171299        -1.096238         0.642052
 O         4.152033        -1.830284         1.380362
 C         3.705094         0.147822        -0.150428
 C         3.236101         0.556088        -1.561002
 O         1.836800         0.187236        -1.496029
 C         2.626720         0.255817         0.820736
 H        -0.308180         0.014108         1.274668
 H         0.173767         1.383423         0.420316
 H        -0.830168        -0.071627        -0.342049
 H         1.369160        -2.241795         0.865932
 H         2.151675        -2.350944        -0.810008
 H         3.789843        -2.211440         2.196079
 H         4.695802         0.268323         0.217286
 H         3.357002         1.670115        -1.570702
 H         3.713242        -0.033056        -2.369282
 H         2.631479         0.813729         1.665685
