19
Iteration:  3738charge 0 multiplicity 1
 C         0.057165         0.167506         0.064338
 C         1.493722        -0.128710        -0.039748
 C         1.929369        -1.563335         0.139317
 C         3.230279        -1.056544         0.644852
 O         4.111027        -1.995784         1.244099
 C         3.730552         0.200095        -0.033687
 C         3.175740         0.309030        -1.549652
 O         1.803921         0.434859        -1.278561
 C         2.586308         0.296286         0.966630
 H        -0.507363        -0.504833         0.734844
 H        -0.055033         1.242934         0.176133
 H        -0.404065        -0.109152        -0.879157
 H         1.215018        -2.113776         0.918133
 H         1.915020        -2.307440        -0.708921
 H         4.932025        -1.857553         0.743763
 H         4.845501         0.418312         0.217388
 H         3.479980         1.090913        -2.257464
 H         3.169928        -0.693422        -2.211992
 H         2.473467         0.868975         1.888776
