19
Iteration:  4600
 C         0.039817         0.172421         0.195613
 C         1.478678        -0.118764        -0.085565
 C         1.884336        -1.618930         0.047585
 C         3.194366        -1.114826         0.721127
 O         4.081249        -1.946297         1.409269
 C         3.763167         0.059097        -0.096161
 C         3.213266         0.286596        -1.517246
 O         1.809675         0.485569        -1.380650
 C         2.592653         0.342301         0.803654
 H        -0.117565         0.154848         1.340092
 H        -0.108753         1.286779         0.075247
 H        -0.635575        -0.494230        -0.451846
 H         1.317355        -2.231155         0.689871
 H         2.127313        -2.187003        -0.834615
 H         4.875345        -1.965399         0.857200
 H         4.756876         0.493654         0.155836
 H         3.612921         1.313479        -1.903096
 H         3.445309        -0.473374        -2.379109
 H         2.611712         1.125932         1.536794
