19
Iteration:  3747
 C         0.008851         0.203125         0.160134
 C         1.471056        -0.119318        -0.014666
 C         1.954634        -1.591281         0.042737
 C         3.247652        -1.056973         0.699482
 O         4.093500        -1.973972         1.284513
 C         3.792692         0.119206        -0.071312
 C         3.146412         0.313720        -1.553084
 O         1.787673         0.442335        -1.352855
 C         2.580501         0.271790         0.922439
 H        -0.412279        -0.535192         0.874327
 H        -0.329439         1.182404         0.273260
 H        -0.379309         0.001228        -0.786407
 H         1.434800        -2.078209         0.968291
 H         1.967735        -2.139228        -0.948330
 H         4.965409        -1.809777         0.892363
 H         4.747611         0.428291         0.356326
 H         3.581284         1.208051        -2.141544
 H         3.638996        -0.622558        -2.044116
 H         2.401725         0.936687         1.790434
