19
Iteration:   867charge 0 multiplicity 1
 C        -0.128148         0.128038         0.024085
 C         1.461048        -0.088596        -0.015129
 C         2.023891        -1.634617         0.130177
 C         3.271485        -1.082649         0.686742
 O         4.240852        -1.859413         1.350381
 C         3.727871         0.034369        -0.204482
 C         3.158676         0.216212        -1.540871
 O         1.771085         0.581832        -1.242123
 C         2.616437         0.300487         0.871465
 H        -0.726997        -0.535271         0.534091
 H        -0.431273         1.129156         0.094074
 H        -0.258156        -0.062866        -0.991776
 H         1.342101        -2.271295         0.775640
 H         2.115879        -2.281759        -0.833506
 H         3.943070        -2.052444         2.263070
 H         4.668343         0.476305         0.131771
 H         3.684776         0.867172        -2.166140
 H         3.260195        -0.722374        -2.115618
 H         2.783455         1.174267         1.525086
