19
Iteration:  3109charge 0 multiplicity 1
 C         0.057012         0.155338         0.251619
 C         1.476395        -0.110997        -0.105203
 C         1.966187        -1.603128        -0.076921
 C         3.251289        -1.061152         0.659962
 O         4.034529        -1.945599         1.398611
 C         3.715253         0.171836        -0.131012
 C         3.200400         0.312064        -1.571346
 O         1.825656         0.384209        -1.356993
 C         2.573197         0.292774         0.940279
 H        -0.240458        -0.424849         1.154704
 H         0.080517         1.182184         0.539083
 H        -0.751836        -0.116931        -0.481748
 H         1.387135        -2.314821         0.610250
 H         2.089270        -2.124632        -1.083107
 H         4.819474        -1.489582         1.769231
 H         4.645214         0.641997         0.120744
 H         3.616197         1.228918        -2.165226
 H         3.380486        -0.583987        -2.225273
 H         2.471640         0.849488         1.852396
