19
Iteration:  2936charge 0 multiplicity 1
 C         0.086891         0.175971         0.188237
 C         1.482378        -0.194144        -0.162719
 C         1.929184        -1.624574         0.048823
 C         3.222132        -1.110202         0.650478
 O         4.135600        -1.885649         1.412803
 C         3.762313         0.047469        -0.123955
 C         3.139752         0.502197        -1.562254
 O         1.714207         0.351252        -1.456640
 C         2.683014         0.247081         0.960912
 H        -0.185319        -0.229374         1.191881
 H        -0.002075         1.257182         0.287295
 H        -0.605373         0.136758        -0.703488
 H         1.389960        -2.253484         0.813082
 H         1.939427        -2.186643        -0.852836
 H         4.060960        -1.569599         2.344264
 H         4.750911         0.168934         0.082808
 H         3.327805         1.595190        -1.564941
 H         3.519631        -0.031107        -2.476524
 H         2.680801         0.877221         1.942938
