19
Iteration:  3558
 C         0.044080         0.275689         0.131967
 C         1.444658        -0.168493        -0.034022
 C         1.926242        -1.694638         0.044672
 C         3.187287        -1.121626         0.644979
 O         4.147899        -1.860169         1.322041
 C         3.690196         0.141071        -0.080063
 C         3.245581         0.350005        -1.495770
 O         1.754140         0.376137        -1.340849
 C         2.606913         0.230394         0.968537
 H        -0.394902         0.028408         1.060746
 H         0.032342         1.318693        -0.216169
 H        -0.531094        -0.091947        -0.709510
 H         1.397724        -2.299829         0.840550
 H         2.063881        -2.206692        -1.024981
 H         4.952895        -1.731733         0.780958
 H         4.730587         0.388109         0.344115
 H         3.479566         1.284003        -2.071832
 H         3.591397        -0.331425        -2.241262
 H         2.640281         0.982130         1.750409
