19
Iteration:  1770charge 0 multiplicity 1
 C        -0.094679         0.125558         0.190095
 C         1.421198        -0.045922        -0.017916
 C         1.988230        -1.574339         0.146966
 C         3.281500        -1.044962         0.602049
 O         4.102418        -1.919561         1.369784
 C         3.793423         0.173779        -0.129299
 C         3.225669         0.235913        -1.559948
 O         1.820377         0.375216        -1.467500
 C         2.644852         0.363924         0.880200
 H        -0.329956        -0.260361         1.134389
 H        -0.475885         1.026696         0.438277
 H        -0.653147        -0.410536        -0.518563
 H         1.536053        -2.155100         0.974081
 H         2.099464        -2.116895        -0.791512
 H         3.437401        -2.503005         1.807449
 H         4.862228         0.532095         0.039724
 H         3.561665         1.157007        -2.125061
 H         3.506191        -0.653774        -2.149080
 H         2.716009         1.040992         1.768006
