19
Iteration:  4148
 C         0.002160         0.058658         0.254896
 C         1.493455        -0.054403        -0.115352
 C         1.881085        -1.534991        -0.032590
 C         3.239574        -1.143530         0.661528
 O         4.066896        -1.848030         1.506639
 C         3.777346        -0.006689        -0.146738
 C         3.191394         0.274105        -1.549242
 O         1.797775         0.558316        -1.366266
 C         2.663498         0.295483         0.851366
 H        -0.041962        -0.296148         1.235700
 H        -0.440640         1.062880         0.174444
 H        -0.486763        -0.633373        -0.433398
 H         1.224831        -1.987499         0.687743
 H         2.024908        -1.984247        -1.119487
 H         4.567623        -2.548008         1.014325
 H         4.652251         0.460477         0.132842
 H         3.680658         1.212486        -2.115289
 H         3.242110        -0.740845        -2.060749
 H         2.898809         1.184388         1.525850
