19
Iteration:  4514charge 0 multiplicity 1
 C         0.071878         0.153081         0.353405
 C         1.458042        -0.093585        -0.092459
 C         1.900536        -1.574396        -0.032836
 C         3.202341        -1.151446         0.676492
 O         4.024917        -1.888863         1.586095
 C         3.793002         0.011461        -0.179849
 C         3.246305         0.432542        -1.602793
 O         1.776233         0.398613        -1.449084
 C         2.651343         0.321219         0.776784
 H        -0.283815        -0.589236         1.145894
 H        -0.192600         1.208189         0.537705
 H        -0.689986         0.047306        -0.515325
 H         1.242643        -2.241387         0.588331
 H         2.079615        -2.216934        -0.896933
 H         4.629131        -2.404854         1.031194
 H         4.770796         0.349782         0.100303
 H         3.551261         1.430179        -1.783671
 H         3.593047        -0.273914        -2.295578
 H         2.737100         1.098879         1.482796
