19
Iteration:  1457
 C         0.036527         0.101256         0.317345
 C         1.493966        -0.081702        -0.145919
 C         1.942522        -1.524209        -0.061934
 C         3.243326        -1.064805         0.660160
 O         4.075397        -1.836873         1.450768
 C         3.723099         0.032103        -0.142205
 C         3.221166         0.237124        -1.597107
 O         1.837418         0.455912        -1.377681
 C         2.568035         0.253474         0.861852
 H         0.110908        -0.293766         1.307235
 H        -0.289592         1.118313         0.198362
 H        -0.615214        -0.498454        -0.352550
 H         1.291447        -1.986598         0.719183
 H         2.052740        -2.233205        -0.940837
 H         3.919587        -1.739296         2.401709
 H         4.655170         0.418145         0.178595
 H         3.623769         1.081610        -2.265045
 H         3.398734        -0.695365        -2.093922
 H         2.646851         1.237236         1.334751
