19
Iteration:   173charge 0 multiplicity 1
 C         0.072605         0.226249         0.328289
 C         1.468714        -0.170389        -0.161252
 C         2.015060        -1.822856        -0.026750
 C         3.214960        -1.162421         0.518042
 O         3.941926        -1.775708         1.605817
 C         3.768486         0.067266        -0.116151
 C         3.251920         0.534329        -1.480273
 O         1.756272         0.325585        -1.458254
 C         2.644087         0.261334         0.726981
 H        -0.037119        -0.183631         1.351586
 H        -0.000104         1.299819         0.394174
 H        -0.747968        -0.078677        -0.450447
 H         1.372863        -2.116545         0.761728
 H         2.125113        -2.386126        -0.963429
 H         4.891590        -1.495082         1.523095
 H         4.776459         0.493452         0.149483
 H         3.393901         1.610808        -1.618724
 H         3.483269        -0.113075        -2.361307
 H         2.474175         0.710595         1.750124
