19
Iteration:  1741
 C         0.131333         0.269256         0.138714
 C         1.485553        -0.186523        -0.053860
 C         1.864135        -1.691807         0.139352
 C         3.201009        -1.167775         0.653540
 O         4.197057        -1.789782         1.391998
 C         3.777362         0.044355        -0.167856
 C         3.144309         0.508292        -1.514914
 O         1.768510         0.271506        -1.426785
 C         2.585048         0.230146         0.828817
 H        -0.284169         0.185534         1.186244
 H         0.119562         1.461817         0.081867
 H        -0.559927        -0.217574        -0.664171
 H         1.291369        -2.158106         0.999893
 H         1.882280        -2.329184        -0.796476
 H         3.799871        -2.027450         2.256462
 H         4.721801         0.409781         0.189723
 H         3.295179         1.558406        -1.575916
 H         3.561707        -0.018251        -2.449103
 H         2.604727         1.095276         1.403094
