19
Iteration:  2427
 C        -0.013190         0.217839         0.171841
 C         1.385086        -0.143920        -0.028524
 C         1.897241        -1.570063         0.084241
 C         3.258077        -1.130708         0.621293
 O         4.248239        -1.962234         1.244863
 C         3.733208         0.128193        -0.006317
 C         3.220470         0.402688        -1.505224
 O         1.796835         0.256057        -1.463415
 C         2.557190         0.423731         0.886876
 H        -0.248900         0.141275         1.305811
 H        -0.045765         1.326739        -0.195898
 H        -0.770187        -0.318710        -0.383820
 H         1.481769        -2.168944         0.912569
 H         1.963156        -2.366495        -0.758993
 H         4.067931        -1.825697         2.183945
 H         4.847218         0.360478         0.243384
 H         3.448991         1.354501        -1.868916
 H         3.632392        -0.458326        -2.021227
 H         2.589129         1.063265         1.743835
