19
Iteration:  3899charge 0 multiplicity 1
 C        -0.047144         0.334554         0.103157
 C         1.392159        -0.127287        -0.099690
 C         1.909029        -1.613675         0.065095
 C         3.291491        -1.168587         0.658936
 O         4.250312        -1.877603         1.362928
 C         3.789988         0.081066        -0.062914
 C         3.195620         0.385293        -1.495437
 O         1.719902         0.369489        -1.375100
 C         2.576185         0.220139         0.914134
 H        -0.612143        -0.124180         1.083732
 H         0.022843         1.429502         0.330399
 H        -0.571732         0.025523        -0.837275
 H         1.326274        -2.153733         0.809685
 H         1.903363        -2.354310        -0.690027
 H         4.566787        -2.607879         0.802152
 H         4.856201         0.481260         0.199997
 H         3.605386         1.445737        -1.767982
 H         3.674666        -0.271850        -2.252123
 H         2.557218         0.671034         1.885214
