19
Iteration:  1230
 C         0.070451         0.213343         0.275480
 C         1.468853        -0.163644        -0.099774
 C         2.031555        -1.690257         0.003718
 C         3.262332        -1.154941         0.611481
 O         4.077264        -1.825766         1.509620
 C         3.773770         0.109743        -0.128902
 C         3.142911         0.437245        -1.588284
 O         1.742083         0.363464        -1.494370
 C         2.618911         0.282113         0.844483
 H        -0.302746        -0.552390         1.027547
 H        -0.084031         1.193270         0.714977
 H        -0.676341         0.382868        -0.535465
 H         1.535326        -2.365634         0.650164
 H         2.088434        -2.193043        -0.908843
 H         3.518984        -2.005649         2.302460
 H         4.752152         0.451288         0.244177
 H         3.423339         1.312759        -2.139630
 H         3.692162        -0.383268        -1.997895
 H         2.660852         0.901978         1.738126
