19
Iteration:  2876charge 0 multiplicity 1
 C         0.119559         0.111895         0.396431
 C         1.496645        -0.060221        -0.154649
 C         2.015684        -1.589566        -0.106676
 C         3.176404        -1.092621         0.680700
 O         4.078854        -1.841255         1.470007
 C         3.658100         0.148913        -0.112870
 C         3.167665         0.263112        -1.610730
 O         1.804723         0.450567        -1.463429
 C         2.643342         0.269584         0.905200
 H        -0.058145        -0.321663         1.347010
 H        -0.226753         1.129180         0.439398
 H        -0.443414        -0.597682        -0.162908
 H         1.371590        -2.273304         0.477244
 H         2.210237        -1.947739        -1.194736
 H         3.526284        -2.416674         2.027782
 H         4.743500         0.310515         0.128538
 H         3.586808         1.190347        -2.171730
 H         3.434948        -0.614305        -2.265206
 H         2.532458         0.938272         1.664070
