19
Iteration:   161charge 0 multiplicity 1
 C         0.000522         0.182764         0.298004
 C         1.466594        -0.187585        -0.126711
 C         1.975627        -1.732603         0.045511
 C         3.280446        -1.093592         0.576541
 O         3.928421        -1.796563         1.480229
 C         3.797146         0.090369        -0.155149
 C         3.246133         0.410007        -1.482906
 O         1.794391         0.392659        -1.469559
 C         2.606536         0.308178         0.806466
 H        -0.323324        -0.222113         1.301884
 H        -0.203769         1.261584         0.294609
 H        -0.791830        -0.399741        -0.397419
 H         1.550752        -2.437325         0.762520
 H         2.147008        -2.437432        -0.767817
 H         4.889762        -1.855417         1.445874
 H         4.757802         0.426091         0.255455
 H         3.619363         1.453396        -1.682256
 H         3.777910        -0.168636        -2.287943
 H         2.666481         0.862868         1.724385
