19
Iteration:  3531
 C        -0.006342         0.365132         0.223376
 C         1.397910        -0.185683        -0.125156
 C         1.926090        -1.631062         0.057391
 C         3.270758        -1.141113         0.606403
 O         4.146123        -1.933830         1.337120
 C         3.712286         0.146088        -0.059851
 C         3.254578         0.509819        -1.390983
 O         1.814554         0.137095        -1.457523
 C         2.564798         0.276079         0.890736
 H        -0.184264         0.269890         1.355586
 H        -0.009501         1.362474        -0.250144
 H        -0.912429        -0.200765        -0.159743
 H         1.372085        -2.183947         0.789666
 H         1.931173        -2.187303        -0.837943
 H         5.005367        -1.830175         0.893494
 H         4.618462         0.427168         0.354725
 H         3.219783         1.573078        -1.657055
 H         3.792111         0.143598        -2.315218
 H         2.495532         1.034509         1.694730
