19
Iteration:    33charge 0 multiplicity 1
 C         0.081283         0.149876         0.493023
 C         1.514100        -0.239961        -0.128778
 C         1.931950        -1.698264        -0.019972
 C         3.245499        -1.153901         0.580560
 O         3.860863        -1.814381         1.596634
 C         3.757021         0.200728        -0.098517
 C         3.279573         0.533460        -1.566413
 O         1.812925         0.249508        -1.574750
 C         2.633520         0.325165         0.706095
 H        -0.150728        -0.290434         1.431878
 H         0.159706         1.197145         0.551102
 H        -0.577926        -0.030807        -0.318965
 H         1.393720        -2.301127         0.802047
 H         2.004468        -2.163058        -1.088185
 H         4.752849        -2.190647         1.440299
 H         4.755503         0.390633         0.301172
 H         3.398717         1.575387        -1.696472
 H         3.788197         0.036756        -2.419088
 H         2.510395         1.151487         1.416969
