19
Iteration:  3394charge 0 multiplicity 1
 C         0.047121         0.148812         0.297265
 C         1.504196        -0.125724        -0.068024
 C         1.945675        -1.601358        -0.039202
 C         3.225206        -1.144623         0.678924
 O         4.027283        -1.907968         1.593483
 C         3.773517         0.116214        -0.226708
 C         3.215579         0.510161        -1.532995
 O         1.726031         0.331674        -1.426029
 C         2.682548         0.274431         0.787512
 H        -0.218005        -0.458153         1.156836
 H        -0.305343         1.239906         0.293733
 H        -0.529979        -0.310852        -0.601103
 H         1.230240        -2.210939         0.470338
 H         2.105007        -1.989246        -1.051297
 H         4.688222        -2.428965         1.085088
 H         4.650528         0.479067         0.100033
 H         3.555256         1.550961        -1.723279
 H         3.561848         0.070577        -2.485496
 H         2.619900         0.889620         1.690116
