19
Iteration:  2249charge 0 multiplicity 1
 C         0.019276         0.162591         0.012710
 C         1.511898        -0.062091         0.001497
 C         1.885974        -1.639340         0.163841
 C         3.169322        -1.097395         0.647731
 O         4.168779        -1.879337         1.310648
 C         3.724470         0.172114        -0.067825
 C         3.153611         0.261500        -1.583781
 O         1.752753         0.454419        -1.338791
 C         2.701277         0.314985         0.990575
 H        -0.337673        -0.120660         0.987093
 H        -0.194200         1.173993        -0.235191
 H        -0.309765        -0.662647        -0.679205
 H         1.423235        -2.028481         1.055860
 H         2.003037        -2.347425        -0.748520
 H         4.457464        -2.488870         0.605609
 H         4.670374         0.379319         0.201460
 H         3.498776         1.108768        -2.103659
 H         3.500333        -0.701353        -2.093614
 H         2.692938         0.897610         1.856694
