19
Iteration:  3005charge 0 multiplicity 1
 C         0.054462         0.149530         0.164849
 C         1.450720        -0.148671        -0.021180
 C         1.951576        -1.650656        -0.011862
 C         3.230421        -1.087223         0.674766
 O         4.137527        -1.940873         1.318614
 C         3.739049         0.113271        -0.073903
 C         3.228833         0.292135        -1.546740
 O         1.768408         0.475335        -1.353418
 C         2.560151         0.336306         0.891165
 H        -0.121767        -0.051378         1.240214
 H        -0.293508         1.233309        -0.114039
 H        -0.552226        -0.398902        -0.547047
 H         1.324072        -2.256823         0.583242
 H         2.031363        -2.077543        -0.972738
 H         4.471137        -1.542496         2.148325
 H         4.772327         0.570368         0.274942
 H         3.474041         1.220230        -2.041363
 H         3.407728        -0.639650        -2.200551
 H         2.550483         1.080937         1.625752
