19
Iteration:   146
 C         0.000624         0.074813         0.200075
 C         1.451527        -0.144262        -0.072948
 C         1.950357        -1.564202         0.008457
 C         3.239967        -1.081258         0.664718
 O         4.024793        -1.911994         1.505451
 C         3.751988         0.148729        -0.152254
 C         3.268074         0.375156        -1.585081
 O         1.836058         0.372607        -1.390158
 C         2.586173         0.288628         0.872625
 H        -0.178989        -0.185335         1.276691
 H        -0.245496         1.217646         0.120629
 H        -0.666044        -0.439724        -0.504022
 H         1.398736        -1.948853         0.902141
 H         1.936061        -2.050784        -0.987656
 H         4.877992        -1.928474         0.994118
 H         4.717582         0.530254         0.174361
 H         3.563355         1.381862        -2.049736
 H         3.437258        -0.446264        -2.275065
 H         2.539648         1.072795         1.648891
