19
Iteration:  3557charge 0 multiplicity 1
 C         0.048628         0.279190         0.135515
 C         1.441141        -0.161532        -0.028686
 C         1.925573        -1.699439         0.044149
 C         3.181954        -1.120218         0.646469
 O         4.150349        -1.862464         1.320797
 C         3.693426         0.141303        -0.078924
 C         3.248412         0.351090        -1.495677
 O         1.755611         0.369574        -1.343672
 C         2.600897         0.234400         0.966607
 H        -0.413792         0.045158         1.046825
 H         0.074082         1.317379        -0.219098
 H        -0.540234        -0.123481        -0.699182
 H         1.429383        -2.322964         0.809910
 H         2.061760        -2.218650        -1.015080
 H         4.934543        -1.713591         0.765823
 H         4.703678         0.374377         0.338256
 H         3.459378         1.295865        -2.057832
 H         3.608475        -0.308391        -2.256761
 H         2.641830         0.986974         1.755676
