19
Iteration:  2921
 C         0.070382         0.206411         0.272956
 C         1.492274        -0.162311        -0.072173
 C         1.945245        -1.702852         0.000373
 C         3.246660        -1.214329         0.600373
 O         4.089515        -1.820504         1.545766
 C         3.731560         0.069172        -0.262256
 C         3.183333         0.567812        -1.564845
 O         1.748703         0.390927        -1.437655
 C         2.673701         0.172062         0.832185
 H        -0.297355        -0.254500         1.158277
 H         0.108124         1.246142         0.446227
 H        -0.593133        -0.286279        -0.420278
 H         1.224900        -2.143374         0.722278
 H         2.035932        -2.353634        -0.970729
 H         3.689904        -1.710307         2.421586
 H         4.745896         0.528822         0.024615
 H         3.456250         1.687686        -1.763402
 H         3.518789        -0.071440        -2.424727
 H         2.724651         0.743081         1.757456
