19
Iteration:  3917charge 0 multiplicity 1
 C         0.091986         0.293647         0.196933
 C         1.486294        -0.166553        -0.034546
 C         1.893008        -1.692010         0.020027
 C         3.221122        -1.168119         0.606110
 O         4.095912        -1.875038         1.456732
 C         3.712015         0.128533        -0.182327
 C         3.164010         0.539649        -1.488331
 O         1.790151         0.258981        -1.394283
 C         2.655964         0.251398         0.902193
 H        -0.373139        -0.066456         1.084579
 H         0.040650         1.373385         0.419174
 H        -0.428609         0.049368        -0.742607
 H         1.342721        -2.324792         0.726243
 H         1.886786        -2.103771        -1.052297
 H         4.542134        -2.455183         0.804741
 H         4.708754         0.376199         0.177531
 H         3.272115         1.574870        -1.647227
 H         3.584233        -0.145642        -2.292527
 H         2.693958         1.082316         1.655036
