19
Iteration:  1011
 C         0.008162         0.154372         0.114596
 C         1.449863        -0.126621        -0.094351
 C         1.946632        -1.544467         0.085232
 C         3.231916        -1.107929         0.744409
 O         4.285003        -1.853536         1.290771
 C         3.706717         0.153941        -0.094010
 C         3.229082         0.236249        -1.518042
 O         1.764520         0.456963        -1.368650
 C         2.538592         0.262353         0.881884
 H        -0.457328        -0.301759         0.929860
 H        -0.179003         1.188196         0.244930
 H        -0.535580        -0.261499        -0.748772
 H         1.302794        -2.144482         0.801355
 H         1.912189        -2.111322        -0.949555
 H         4.066833        -2.077298         2.233403
 H         4.709618         0.361629         0.168847
 H         3.559512         1.060667        -2.211253
 H         3.345255        -0.765967        -2.049686
 H         2.302350         0.818635         1.753459
