19
Iteration:  1536charge 0 multiplicity 1
 C        -0.018686         0.310171         0.276148
 C         1.448096        -0.139240        -0.130430
 C         1.879823        -1.717125         0.159376
 C         3.154923        -1.124103         0.634450
 O         4.154837        -1.794146         1.434128
 C         3.759076         0.098454        -0.168760
 C         3.211645         0.554077        -1.592283
 O         1.873474         0.117345        -1.449885
 C         2.663799         0.266235         0.766328
 H        -0.161211         0.092525         1.336189
 H         0.153186         1.436011         0.363124
 H        -0.626042        -0.187431        -0.559527
 H         1.207881        -1.971429         1.086102
 H         1.870643        -2.551267        -0.645687
 H         3.697031        -2.494244         1.916730
 H         4.765073         0.413917         0.289681
 H         3.136007         1.723479        -1.695882
 H         3.750757         0.219034        -2.476042
 H         2.716464         0.906027         1.655817
