19
Iteration:  4020
 C        -0.037513         0.141304         0.131371
 C         1.461690        -0.077264        -0.017817
 C         1.939440        -1.560595         0.044251
 C         3.296062        -1.121911         0.624991
 O         4.136717        -1.901233         1.487068
 C         3.781792         0.158135        -0.212282
 C         3.139047         0.278367        -1.615021
 O         1.832227         0.552021        -1.338744
 C         2.640962         0.187461         0.956987
 H        -0.602891        -0.515822         1.035122
 H        -0.215228         1.258100         0.088169
 H        -0.617774        -0.283986        -0.736764
 H         1.382151        -2.069465         0.823391
 H         1.783576        -2.218410        -0.742017
 H         4.161675        -2.777166         1.081302
 H         4.576104         0.681796         0.152599
 H         3.562737         1.018748        -2.262890
 H         3.212821        -0.584861        -2.284314
 H         2.745612         0.773033         1.896848
