19
Iteration:  1368
 C         0.009927         0.309592         0.194683
 C         1.400419        -0.177592        -0.084856
 C         1.908251        -1.631733         0.126776
 C         3.179606        -1.051407         0.646963
 O         4.228691        -1.816388         1.252819
 C         3.684136         0.080875        -0.070054
 C         3.265021         0.274112        -1.499025
 O         1.876197         0.288323        -1.438796
 C         2.533196         0.337580         0.875436
 H        -0.177444        -0.162570         1.073059
 H        -0.160576         1.343823         0.276831
 H        -0.616401         0.000073        -0.590747
 H         1.439479        -2.208685         0.951868
 H         1.923645        -2.293016        -0.781594
 H         3.842880        -2.284853         2.004144
 H         4.628706         0.524927         0.298303
 H         3.541071         1.249733        -1.939104
 H         3.674212        -0.496579        -2.082201
 H         2.606199         0.828358         1.841321
