19
Iteration:  2718charge 0 multiplicity 1
 C        -0.041430         0.108135         0.237018
 C         1.424274        -0.100139        -0.088032
 C         1.991537        -1.646548        -0.053641
 C         3.238223        -1.132350         0.708649
 O         4.175923        -1.784424         1.485603
 C         3.782327         0.019058        -0.195240
 C         3.172693         0.225668        -1.569073
 O         1.759440         0.581703        -1.319826
 C         2.656518         0.340879         0.775704
 H        -0.149396        -0.302388         1.272096
 H        -0.396186         1.155834         0.128879
 H        -0.611235        -0.662914        -0.370765
 H         1.331214        -2.298934         0.641992
 H         2.168356        -2.215688        -1.000800
 H         3.643077        -2.283320         2.123936
 H         4.833797         0.267296         0.098093
 H         3.630746         1.003504        -2.157284
 H         3.279309        -0.576438        -2.305687
 H         2.760443         1.143227         1.500962
