19
Iteration:   787charge 0 multiplicity 1
 C         0.129072         0.261666         0.430002
 C         1.499181        -0.153507        -0.163729
 C         1.987557        -1.745865        -0.088702
 C         3.178352        -1.140942         0.622305
 O         4.078434        -1.794644         1.502779
 C         3.761215         0.133384        -0.089574
 C         3.226088         0.506244        -1.583986
 O         1.796584         0.253581        -1.543534
 C         2.550512         0.212090         0.811113
 H        -0.005947         0.196113         1.546584
 H        -0.260717         1.280692         0.223836
 H        -0.672441        -0.372520         0.145058
 H         1.451284        -2.334221         0.731786
 H         2.156994        -2.243631        -1.092184
 H         3.634268        -2.154799         2.286956
 H         4.606881         0.661941         0.414497
 H         3.219059         1.594353        -1.683774
 H         3.641883        -0.139273        -2.369348
 H         2.391740         1.033411         1.552065
