19
Iteration:  2015charge 0 multiplicity 1
 C         0.146168         0.172026         0.506034
 C         1.454794        -0.084091        -0.144453
 C         1.926131        -1.657824        -0.046263
 C         3.222164        -1.119965         0.602022
 O         3.886860        -1.766778         1.637290
 C         3.800262         0.065819        -0.245519
 C         3.195331         0.468150        -1.630269
 O         1.788839         0.261887        -1.545378
 C         2.725972         0.241990         0.774099
 H         0.074045        -0.345596         1.514404
 H        -0.114871         1.267406         0.715280
 H        -0.743352        -0.176457         0.028395
 H         1.288172        -2.271635         0.717235
 H         2.114212        -2.073579        -1.124069
 H         4.762997        -2.080751         1.327685
 H         4.625423         0.522165         0.207564
 H         3.488100         1.497765        -1.670059
 H         3.634497        -0.305849        -2.312729
 H         2.543160         0.759120         1.697022
