19
Iteration:  3269charge 0 multiplicity 1
 C        -0.053724         0.036352         0.225488
 C         1.478405        -0.059965        -0.100545
 C         1.971617        -1.572195        -0.068280
 C         3.338849        -1.164865         0.566365
 O         3.978729        -1.814145         1.575926
 C         3.825526         0.079558        -0.161765
 C         3.147961         0.340484        -1.612083
 O         1.772134         0.606134        -1.357509
 C         2.695406         0.206970         0.910088
 H        -0.224242        -0.819683         0.935838
 H        -0.437245         0.939053         0.691142
 H        -0.640257        -0.362538        -0.617164
 H         1.357904        -2.121254         0.687202
 H         1.976775        -2.362275        -0.927076
 H         4.856168        -2.177033         1.317696
 H         4.837622         0.339382         0.035921
 H         3.551677         1.282859        -2.155665
 H         3.349309        -0.648000        -2.083168
 H         2.647361         0.628359         1.879803
