19
Iteration:  2511
 C         0.075536         0.193939         0.241131
 C         1.481745        -0.176454        -0.080029
 C         1.959376        -1.675777        -0.018286
 C         3.222204        -1.116272         0.608923
 O         4.135799        -1.785492         1.481850
 C         3.693405         0.094229        -0.150827
 C         3.200091         0.298741        -1.573852
 O         1.749607         0.431286        -1.336208
 C         2.633433         0.339766         0.841313
 H        -0.097441        -0.408125         1.139681
 H        -0.154456         1.205097         0.524663
 H        -0.640190        -0.043273        -0.572680
 H         1.344652        -2.408100         0.544943
 H         2.266657        -2.077779        -0.994031
 H         3.557844        -2.371351         2.020669
 H         4.845509         0.210588        -0.105727
 H         3.528020         1.154790        -2.210273
 H         3.520701        -0.408928        -2.366357
 H         2.615538         1.072242         1.638727
