19
Iteration:  2660
 C        -0.035048         0.215496         0.235259
 C         1.394099        -0.194965        -0.038963
 C         1.962024        -1.596754         0.052442
 C         3.285399        -1.028003         0.625414
 O         4.173967        -1.869497         1.355750
 C         3.764542         0.067249        -0.131816
 C         3.236746         0.327791        -1.525122
 O         1.791329         0.307931        -1.427346
 C         2.590183         0.341074         0.843611
 H        -0.411666        -0.214588         1.175623
 H        -0.155373         1.312895         0.327405
 H        -0.740759        -0.145574        -0.631901
 H         1.457755        -2.111379         0.886678
 H         1.930410        -2.184065        -0.836529
 H         3.814590        -2.164791         2.219614
 H         4.735466         0.512503         0.076924
 H         3.525183         1.334860        -1.686340
 H         3.572708        -0.428715        -2.218440
 H         2.598825         1.235505         1.461574
