19
Iteration:  3559charge 0 multiplicity 1
 C         0.039280         0.272431         0.127032
 C         1.448654        -0.176012        -0.039906
 C         1.927012        -1.689708         0.044196
 C         3.193666        -1.122928         0.643285
 O         4.145572        -1.857940         1.323430
 C         3.688383         0.140499        -0.080435
 C         3.241204         0.350505        -1.495976
 O         1.753647         0.382780        -1.338061
 C         2.612680         0.226531         0.969393
 H        -0.381817         0.011122         1.087050
 H        -0.011864         1.324778        -0.202157
 H        -0.526222        -0.068799        -0.721726
 H         1.366398        -2.272030         0.863136
 H         2.060398        -2.187826        -1.014046
 H         4.971526        -1.754333         0.801032
 H         4.746157         0.401962         0.340245
 H         3.501622         1.273480        -2.075415
 H         3.573850        -0.372896        -2.228122
 H         2.636786         0.975546         1.748205
