19
Iteration:  2875
 C         0.117580         0.108416         0.386749
 C         1.496446        -0.056476        -0.153894
 C         2.010347        -1.590888        -0.107667
 C         3.178476        -1.096307         0.681604
 O         4.087181        -1.847887         1.469388
 C         3.665096         0.156171        -0.111957
 C         3.168393         0.258418        -1.613331
 O         1.804315         0.451993        -1.464527
 C         2.641042         0.278364         0.909259
 H        -0.048764        -0.333141         1.359027
 H        -0.231992         1.147737         0.446778
 H        -0.418925        -0.590348        -0.142626
 H         1.364793        -2.282854         0.451541
 H         2.191535        -1.943816        -1.166695
 H         3.516272        -2.421231         2.019656
 H         4.711320         0.304839         0.138209
 H         3.564144         1.180543        -2.141838
 H         3.397677        -0.637262        -2.232496
 H         2.505981         0.976489         1.664305
