19
Iteration:  3943charge 0 multiplicity 1
 C         0.094187         0.217097         0.402763
 C         1.464398        -0.178261        -0.159637
 C         1.969677        -1.663878        -0.010440
 C         3.253868        -1.139165         0.521199
 O         3.857209        -1.864624         1.546376
 C         3.848378         0.102123        -0.222467
 C         3.221390         0.581891        -1.487047
 O         1.780499         0.272576        -1.469622
 C         2.668074         0.236384         0.780552
 H        -0.064904        -0.093807         1.583565
 H         0.005955         1.312537         0.657131
 H        -0.705812        -0.198597        -0.271721
 H         1.510894        -2.191041         0.826460
 H         1.820644        -2.327072        -0.804721
 H         4.714068        -2.043919         1.116785
 H         4.766462         0.446014         0.336671
 H         3.374283         1.728964        -1.565372
 H         3.614631         0.071641        -2.415040
 H         2.653539         0.636182         1.767064
