19
Iteration:  4218charge 0 multiplicity 1
 C         0.051157         0.321046         0.270475
 C         1.419446        -0.194223        -0.080338
 C         1.962932        -1.686063        -0.040709
 C         3.177439        -1.164398         0.687554
 O         4.105166        -1.765316         1.528191
 C         3.800989         0.000416        -0.182747
 C         3.213177         0.472746        -1.549486
 O         1.784889         0.334287        -1.447199
 C         2.625097         0.234027         0.833824
 H        -0.344130        -0.075952         1.290918
 H         0.165054         1.393947         0.557277
 H        -0.735715         0.149160        -0.448176
 H         1.291337        -2.333481         0.634336
 H         2.228418        -2.025906        -1.118462
 H         4.294693        -2.626012         1.078535
 H         4.835068         0.304246         0.269325
 H         3.368425         1.576158        -1.750379
 H         3.377664        -0.271968        -2.420839
 H         2.417535         0.751995         1.716764
