19
Iteration:  3473charge 0 multiplicity 1
 C        -0.015298         0.155906         0.236373
 C         1.445786        -0.117313        -0.076950
 C         1.967819        -1.622392        -0.035987
 C         3.269311        -1.116363         0.629956
 O         4.044234        -1.857629         1.550177
 C         3.837869        -0.010473        -0.207336
 C         3.164096         0.430775        -1.497064
 O         1.742410         0.428763        -1.436358
 C         2.670978         0.233339         0.849379
 H        -0.287016        -0.180967         1.306358
 H        -0.359322         1.265990         0.339428
 H        -0.505732        -0.348382        -0.653231
 H         1.399156        -2.237920         0.734750
 H         2.012024        -2.017109        -1.009208
 H         4.869366        -2.123513         1.088660
 H         4.758080         0.632783         0.156201
 H         3.314216         1.495034        -1.546658
 H         3.543032        -0.226715        -2.354245
 H         2.719726         0.906978         1.705228
