19
Iteration:  3376charge 0 multiplicity 1
 C         0.078967         0.147799         0.231077
 C         1.486574        -0.174861        -0.106983
 C         1.956078        -1.702734         0.012466
 C         3.229751        -1.123730         0.604757
 O         3.970411        -1.840434         1.496857
 C         3.776871        -0.005243        -0.129120
 C         3.121620         0.602186        -1.467003
 O         1.782769         0.311218        -1.454652
 C         2.679373         0.289309         0.861383
 H         0.010040         0.109525         1.323651
 H         0.021493         1.256144         0.034290
 H        -0.632415        -0.174475        -0.482317
 H         1.511937        -2.201578         0.919931
 H         2.027672        -2.247414        -0.897493
 H         4.797182        -2.156224         1.071795
 H         4.855825         0.198217         0.025741
 H         3.269409         1.690454        -1.408753
 H         3.497264         0.235680        -2.513401
 H         2.771283         1.104437         1.541214
