19
Iteration:  4342
 C        -0.006438         0.183417         0.221361
 C         1.446544        -0.119979        -0.064630
 C         1.923855        -1.635059        -0.071162
 C         3.266502        -1.112219         0.600621
 O         4.062528        -1.855326         1.447882
 C         3.763925         0.044831        -0.159737
 C         3.234760         0.211676        -1.542637
 O         1.828061         0.572130        -1.320610
 C         2.607412         0.222419         0.856815
 H        -0.410542        -0.187776         1.151042
 H        -0.200988         1.245695         0.569685
 H        -0.615330        -0.138322        -0.679873
 H         1.393476        -2.060475         0.874569
 H         1.807077        -2.306577        -0.927433
 H         4.814921        -1.341288         1.820223
 H         4.696343         0.498955         0.079677
 H         3.710209         0.871664        -2.227504
 H         3.313006        -0.765969        -2.136661
 H         2.544676         0.925442         1.718068
