19
Iteration:  3988charge 0 multiplicity 1
 C         0.080740         0.113842         0.319472
 C         1.491985        -0.106778        -0.133659
 C         2.022626        -1.682434        -0.166463
 C         3.148589        -1.134338         0.672764
 O         3.969643        -1.780253         1.510306
 C         3.795291         0.023341        -0.166204
 C         3.170844         0.303484        -1.509224
 O         1.777994         0.550339        -1.336653
 C         2.672435         0.277317         0.833130
 H         0.008136         0.088962         1.504003
 H        -0.233486         1.186887         0.299911
 H        -0.606807        -0.565146        -0.236850
 H         1.369779        -2.370317         0.404031
 H         2.358408        -2.123800        -1.044985
 H         4.489844        -2.421701         0.980010
 H         4.744041         0.354263         0.088158
 H         3.530614         1.243867        -1.998968
 H         3.152242        -0.528412        -2.217857
 H         2.770030         1.038754         1.618640
