19
Iteration:  1680
 C         0.098097         0.252206         0.270121
 C         1.510248        -0.171421        -0.086199
 C         1.976682        -1.687728         0.076706
 C         3.208518        -1.092610         0.615060
 O         4.094206        -1.868538         1.412836
 C         3.692010         0.167039        -0.113360
 C         3.198418         0.424797        -1.601827
 O         1.782823         0.223488        -1.485077
 C         2.588441         0.366177         0.878259
 H        -0.205670         0.058175         1.349765
 H         0.250669         1.347526         0.214589
 H        -0.597836        -0.220548        -0.386617
 H         1.332317        -2.094341         0.936476
 H         2.018413        -2.352569        -0.820135
 H         3.656932        -2.335711         2.166256
 H         4.708039         0.436789         0.085545
 H         3.300317         1.474300        -2.072289
 H         3.704088        -0.327761        -2.225863
 H         2.673588         0.977710         1.800058
