19
Iteration:  4891
 C         0.091123         0.153918         0.412519
 C         1.512536        -0.137912        -0.160152
 C         1.908445        -1.581273        -0.051079
 C         3.224944        -1.096866         0.641254
 O         3.997411        -1.800547         1.585665
 C         3.791648        -0.016987        -0.246339
 C         3.275133         0.257487        -1.567873
 O         1.728038         0.503892        -1.401734
 C         2.662573         0.324420         0.696600
 H         0.270270        -0.064111         1.538100
 H        -0.109370         1.215230         0.196744
 H        -0.638230        -0.488626         0.012043
 H         1.252252        -2.210925         0.588905
 H         2.071396        -2.235744        -0.941913
 H         3.489906        -2.486243         2.031716
 H         4.784748         0.355054         0.001988
 H         3.689768         1.213287        -1.914880
 H         3.482199        -0.599567        -2.345713
 H         2.642419         0.973252         1.554098
