19
Iteration:   584charge 0 multiplicity 1
 C        -0.037226         0.105722         0.136029
 C         1.495871        -0.113564        -0.062753
 C         1.987697        -1.642183        -0.013643
 C         3.266946        -1.017816         0.672350
 O         4.161056        -1.917705         1.328783
 C         3.724392         0.194466        -0.051040
 C         3.201299         0.213783        -1.542272
 O         1.834314         0.419005        -1.289767
 C         2.567087         0.429761         0.845979
 H        -0.379702         0.034220         1.206233
 H        -0.347640         1.132937        -0.221232
 H        -0.738564        -0.582594        -0.482644
 H         1.339260        -2.245330         0.572986
 H         2.220507        -2.182016        -0.878002
 H         3.568483        -2.476996         1.873265
 H         4.730505         0.550519         0.268504
 H         3.507177         1.035220        -2.131679
 H         3.453638        -0.742646        -1.938260
 H         2.399333         1.169274         1.657382
