19
Iteration:    26
 C         0.111302         0.137875         0.440312
 C         1.490102        -0.187168        -0.185685
 C         1.950366        -1.668172        -0.006385
 C         3.262549        -1.106184         0.592999
 O         3.856406        -1.827306         1.590185
 C         3.764706         0.187653        -0.116434
 C         3.256165         0.487310        -1.573525
 O         1.808827         0.251229        -1.575124
 C         2.609933         0.273846         0.772968
 H        -0.007502        -0.362522         1.448149
 H         0.174943         1.297017         0.712242
 H        -0.684828        -0.145042        -0.258315
 H         1.475828        -2.039743         0.845985
 H         1.995503        -2.213422        -0.888290
 H         4.714493        -2.153476         1.304786
 H         4.779445         0.470201         0.296616
 H         3.426124         1.615438        -1.738557
 H         3.791742         0.060494        -2.419341
 H         2.478986         0.928219         1.723252
