19
Iteration:  4653charge 0 multiplicity 1
 C        -0.025455         0.197981         0.083946
 C         1.474551        -0.100974         0.007890
 C         1.907561        -1.562230         0.039905
 C         3.276194        -1.067721         0.639420
 O         4.054352        -1.987301         1.341774
 C         3.758217         0.184001        -0.157030
 C         3.222503         0.254661        -1.568134
 O         1.786358         0.377934        -1.282670
 C         2.701989         0.318576         0.904347
 H        -0.580217        -0.282592         0.934758
 H        -0.259574         1.251101         0.301551
 H        -0.507529         0.017324        -0.805159
 H         1.447624        -2.176444         0.826082
 H         1.781910        -2.316012        -0.835260
 H         4.497363        -1.553637         2.078425
 H         4.825113         0.369869         0.036903
 H         3.547886         1.189374        -2.173125
 H         3.345049        -0.704286        -2.081170
 H         2.805587         1.009612         1.733473
