19
Iteration:  1072charge 0 multiplicity 1
 C         0.026784         0.119691         0.286472
 C         1.493910        -0.114987        -0.090227
 C         1.929434        -1.683982         0.023837
 C         3.240929        -1.129688         0.592672
 O         4.096716        -1.771401         1.536007
 C         3.681025         0.105702        -0.164752
 C         3.231603         0.467206        -1.572371
 O         1.773445         0.342018        -1.451009
 C         2.665678         0.274062         0.837140
 H        -0.139784        -0.660172         1.033733
 H        -0.112141         1.188711         0.600875
 H        -0.505306         0.052086        -0.670862
 H         1.342246        -2.158664         0.779224
 H         1.888716        -2.244262        -0.857952
 H         3.779306        -2.686879         1.711724
 H         4.732385         0.357310         0.022142
 H         3.606537         1.419923        -1.834466
 H         3.643607        -0.206250        -2.278935
 H         2.750671         1.105389         1.547710
