19
Iteration:   908charge 0 multiplicity 1
 C        -0.003636         0.155874         0.266744
 C         1.396858        -0.074269        -0.057026
 C         1.935201        -1.647137         0.002725
 C         3.239388        -1.097352         0.599236
 O         4.182296        -1.771844         1.398482
 C         3.750503         0.110790        -0.102373
 C         3.294721         0.254976        -1.500605
 O         1.797038         0.425650        -1.421051
 C         2.555563         0.251660         0.812265
 H        -0.284474        -0.358461         1.219369
 H        -0.289094         1.222558         0.357806
 H        -0.648005        -0.220619        -0.528413
 H         1.474606        -2.343746         0.719885
 H         2.111567        -2.182702        -0.915088
 H         3.687680        -2.283652         2.055004
 H         4.718972         0.495246         0.161697
 H         3.598637         1.171418        -1.998910
 H         3.455026        -0.598332        -2.226310
 H         2.629098         0.939543         1.626315
