19
Iteration:  2780charge 0 multiplicity 1
 C         0.020249         0.337339         0.278541
 C         1.429494        -0.234081        -0.077816
 C         1.937812        -1.731019         0.094488
 C         3.169065        -1.090430         0.641207
 O         4.158355        -1.831195         1.380953
 C         3.699643         0.138769        -0.157726
 C         3.236707         0.559266        -1.558854
 O         1.834903         0.187493        -1.492276
 C         2.624348         0.255874         0.823991
 H        -0.356410         0.014823         1.261120
 H         0.189959         1.369913         0.421351
 H        -0.847423        -0.100632        -0.340616
 H         1.413417        -2.234169         0.889993
 H         2.145959        -2.310044        -0.793011
 H         3.809295        -2.215615         2.197088
 H         4.708440         0.235128         0.265905
 H         3.388923         1.662872        -1.565570
 H         3.722011        -0.018642        -2.386830
 H         2.669867         0.809516         1.658311
