19
Iteration:   785
 C         0.139319         0.249260         0.416453
 C         1.499711        -0.148743        -0.163680
 C         1.980927        -1.751238        -0.078916
 C         3.190374        -1.143050         0.623498
 O         4.086863        -1.802191         1.508133
 C         3.755160         0.129308        -0.089827
 C         3.212948         0.501397        -1.591517
 O         1.802463         0.269896        -1.542770
 C         2.550165         0.213161         0.827542
 H        -0.025843         0.234121         1.555095
 H        -0.224266         1.325753         0.197372
 H        -0.716627        -0.430866         0.054187
 H         1.474683        -2.339077         0.698064
 H         2.112517        -2.176662        -1.035488
 H         3.600716        -2.105483         2.283784
 H         4.624689         0.639794         0.396949
 H         3.179189         1.605465        -1.749504
 H         3.574957        -0.124681        -2.403216
 H         2.376066         1.028321         1.588133
