19
Iteration:  4842
 C         0.126661         0.334074         0.336043
 C         1.505564        -0.163380        -0.149124
 C         1.894897        -1.693793         0.089356
 C         3.268261        -1.107811         0.616347
 O         4.033839        -1.878384         1.466596
 C         3.799005         0.068344        -0.143245
 C         3.144572         0.475728        -1.496571
 O         1.760405         0.215197        -1.511195
 C         2.656880         0.318106         0.761197
 H         0.051915         0.058644         1.341590
 H         0.223088         1.428489         0.250303
 H        -0.691628         0.020485        -0.383243
 H         1.365593        -2.295668         0.863000
 H         1.715085        -2.395544        -0.918053
 H         3.496128        -2.256506         2.194383
 H         4.826955         0.255118         0.100201
 H         3.367545         1.577186        -1.580368
 H         3.545451        -0.039090        -2.316665
 H         2.784055         1.222405         1.352901
