19
Iteration:  3111charge 0 multiplicity 1
 C         0.060400         0.159386         0.243401
 C         1.470161        -0.117594        -0.112260
 C         1.963931        -1.620708        -0.056185
 C         3.242979        -1.055824         0.670058
 O         4.035040        -1.941372         1.385880
 C         3.712684         0.168304        -0.144206
 C         3.199391         0.324122        -1.568822
 O         1.828598         0.392243        -1.343354
 C         2.572723         0.280362         0.956012
 H        -0.268931        -0.424631         1.117144
 H        -0.001318         1.236860         0.456366
 H        -0.712341        -0.096305        -0.507020
 H         1.393759        -2.367738         0.678127
 H         2.092687        -2.121578        -1.073858
 H         4.823738        -1.447855         1.705642
 H         4.744554         0.664922         0.124434
 H         3.652972         1.169159        -2.261153
 H         3.428117        -0.556922        -2.252274
 H         2.497718         0.819930         1.843536
