19
Iteration:  1800charge 0 multiplicity 1
 C         0.080465         0.018986         0.238043
 C         1.486076        -0.036912        -0.113351
 C         1.965772        -1.569485        -0.029961
 C         3.156013        -1.017049         0.667447
 O         4.129203        -1.843811         1.391061
 C         3.728712         0.117432        -0.108525
 C         3.184095         0.062509        -1.496009
 O         1.815159         0.526467        -1.343280
 C         2.613438         0.434928         0.805469
 H         0.053856        -0.512207         1.263857
 H        -0.260695         1.097335         0.369158
 H        -0.705721        -0.445132        -0.349101
 H         1.295125        -2.201402         0.493311
 H         2.194569        -2.049593        -0.966060
 H         3.667150        -2.580139         1.808911
 H         4.835222         0.342094        -0.037294
 H         3.632610         0.820032        -2.220705
 H         3.239437        -0.846643        -2.042410
 H         2.509758         1.093218         1.724403
