19
Iteration:  3599charge 0 multiplicity 1
 C        -0.038199         0.028686         0.281572
 C         1.495776        -0.107031        -0.064466
 C         1.979899        -1.599465        -0.040546
 C         3.275423        -1.121456         0.664387
 O         3.992662        -1.852173         1.534769
 C         3.771983         0.056722        -0.196563
 C         3.222327         0.313057        -1.591889
 O         1.778434         0.628135        -1.341942
 C         2.679258         0.286109         0.834122
 H        -0.319914        -0.857219         0.850720
 H        -0.364680         1.019382         0.725993
 H        -0.676102        -0.269393        -0.622965
 H         1.300539        -2.198618         0.475090
 H         2.098015        -2.110798        -1.003390
 H         4.603705        -2.441290         1.065991
 H         4.752673         0.464149         0.138469
 H         3.794388         1.038207        -2.247207
 H         3.258846        -0.687477        -2.282541
 H         2.715814         1.112089         1.553066
