19
Iteration:  4865charge 0 multiplicity 1
 C         0.074763         0.248736         0.478718
 C         1.577750        -0.112674        -0.062033
 C         1.885209        -1.636562        -0.032177
 C         3.227611        -1.113884         0.549540
 O         3.905145        -1.757085         1.588070
 C         3.803146        -0.002021        -0.237721
 C         3.218963         0.504546        -1.668739
 O         1.823745         0.245847        -1.497754
 C         2.709491         0.240704         0.787873
 H         0.241157         0.033795         1.464681
 H        -0.185012         1.303651         0.401903
 H        -0.692196        -0.410920        -0.099022
 H         1.297934        -2.239593         0.691695
 H         1.886362        -2.465591        -1.040920
 H         3.407506        -2.381031         2.117252
 H         4.829352         0.358270         0.098022
 H         3.437627         1.613903        -1.835451
 H         3.574074        -0.126150        -2.463538
 H         2.720118         0.697711         1.793699
