19
Iteration:   208
 C         0.092160         0.264003         0.296098
 C         1.471295        -0.166835        -0.112837
 C         2.009308        -1.742965        -0.069538
 C         3.242398        -1.183379         0.645534
 O         4.025345        -1.852908         1.616296
 C         3.722774         0.093528        -0.137961
 C         3.196941         0.502318        -1.529386
 O         1.736669         0.314734        -1.512425
 C         2.587715         0.262718         0.804746
 H        -0.265852        -0.211745         1.182019
 H         0.128992         1.324639         0.454778
 H        -0.604048         0.035519        -0.473271
 H         1.300971        -2.459651         0.326880
 H         2.142482        -2.226205        -1.084197
 H         4.898477        -1.382570         1.630695
 H         4.701728         0.554412         0.200004
 H         3.497820         1.511332        -1.690278
 H         3.683793        -0.074299        -2.346242
 H         2.584251         0.925306         1.745223
