19
Iteration:  3102charge 0 multiplicity 1
 C         0.041898         0.138251         0.305005
 C         1.486084        -0.132103        -0.080949
 C         2.007220        -1.550202        -0.128195
 C         3.265113        -1.080729         0.610449
 O         4.027137        -1.959786         1.440313
 C         3.712645         0.163807        -0.082317
 C         3.210838         0.279016        -1.554160
 O         1.782792         0.387445        -1.421841
 C         2.579202         0.320166         0.864511
 H        -0.083794        -0.422862         1.234241
 H         0.068123         1.187336         0.722173
 H        -0.718454        -0.053767        -0.437566
 H         1.288527        -2.172181         0.517469
 H         2.103945        -2.065072        -1.093249
 H         4.773006        -1.557204         1.932212
 H         4.748895         0.681289         0.233809
 H         3.461917         1.313016        -1.824586
 H         3.427069        -0.633384        -2.138793
 H         2.472258         0.965219         1.706388
