19
Iteration:  1330charge 0 multiplicity 1
 C        -0.101440         0.125305         0.015497
 C         1.424441        -0.058664        -0.056580
 C         2.026405        -1.528349         0.149100
 C         3.247181        -1.013586         0.743150
 O         4.201110        -1.898538         1.250312
 C         3.716682         0.079406        -0.133046
 C         3.162362         0.180029        -1.505125
 O         1.839171         0.448579        -1.331267
 C         2.632768         0.358755         0.913505
 H        -0.586376         0.084182         1.113185
 H        -0.359321         1.203124        -0.273733
 H        -0.684154        -0.738920        -0.512539
 H         1.426407        -2.028921         0.891218
 H         2.110137        -2.127251        -0.721834
 H         3.763445        -2.598209         1.768680
 H         4.653473         0.486826         0.117377
 H         3.822546         0.916554        -2.006182
 H         3.205321        -0.846333        -2.069198
 H         2.852442         0.892861         1.833618
