19
Iteration:  3574
 C        -0.042827         0.195663         0.107815
 C         1.441895        -0.116135        -0.108385
 C         1.929321        -1.606663         0.026286
 C         3.318716        -1.128718         0.586968
 O         4.140471        -1.886955         1.429344
 C         3.750706         0.134768        -0.103636
 C         3.148638         0.294197        -1.481442
 O         1.806670         0.508666        -1.331317
 C         2.616791         0.222010         0.904095
 H        -0.442576        -0.416382         1.022168
 H        -0.119692         1.268572         0.348198
 H        -0.729516        -0.255745        -0.654613
 H         1.318909        -2.058583         0.831241
 H         1.800460        -2.294921        -0.717973
 H         4.986199        -2.054418         0.973041
 H         4.693597         0.535814         0.066714
 H         3.610790         1.107396        -2.030069
 H         3.350956        -0.691168        -2.095120
 H         2.559727         0.726583         1.877207
