19
Iteration:  4077charge 0 multiplicity 1
 C         0.072269         0.342232         0.311278
 C         1.436440        -0.126577        -0.140925
 C         1.877122        -1.666615         0.052233
 C         3.182664        -1.168170         0.566231
 O         4.088070        -1.874979         1.477871
 C         3.724117         0.180462        -0.114007
 C         3.196690         0.577528        -1.512622
 O         1.823142         0.134653        -1.542107
 C         2.646749         0.183256         0.888913
 H        -0.053387        -0.137014         1.403837
 H         0.092554         1.503687         0.442571
 H        -0.767250         0.070004        -0.410465
 H         1.355720        -2.104008         0.928537
 H         1.894388        -2.143830        -0.837199
 H         4.863973        -2.253340         1.012673
 H         4.782800         0.383741         0.233104
 H         3.303671         1.635859        -1.651440
 H         3.747885        -0.040907        -2.168524
 H         2.702782         0.803212         1.820572
