19
Iteration:   548
 C        -0.042018         0.157308         0.152482
 C         1.474146        -0.042548        -0.130058
 C         1.945735        -1.628575         0.020440
 C         3.199332        -1.111497         0.697248
 O         4.238097        -1.793593         1.430491
 C         3.723010         0.149543        -0.132762
 C         3.219813         0.247290        -1.579079
 O         1.839880         0.405227        -1.385771
 C         2.538752         0.258723         0.950126
 H        -0.264785        -0.520483         1.043587
 H        -0.128976         1.209322         0.619362
 H        -0.653007        -0.017094        -0.718589
 H         1.254380        -2.021126         0.725034
 H         1.977121        -2.316232        -0.857628
 H         3.892283        -2.698878         1.457537
 H         4.635144         0.600478         0.199110
 H         3.631682         1.054935        -2.218633
 H         3.394092        -0.588264        -2.141978
 H         2.458996         0.905934         1.802705
