19
Iteration:  4580charge 0 multiplicity 1
 C         0.069618         0.284919         0.329168
 C         1.460642        -0.150190        -0.139581
 C         1.990152        -1.642897        -0.077096
 C         3.243654        -1.174494         0.545034
 O         3.977733        -1.789220         1.558887
 C         3.745744         0.039881        -0.165757
 C         3.246023         0.432482        -1.516865
 O         1.766508         0.362671        -1.439050
 C         2.649576         0.208353         0.901261
 H        -0.127298         0.288758         1.454247
 H        -0.256042         1.356053         0.115884
 H        -0.771871        -0.380542        -0.210439
 H         1.367336        -2.231758         0.586900
 H         1.969859        -2.206843        -0.988742
 H         4.597972        -2.378699         1.059635
 H         4.802811         0.323375         0.160706
 H         3.438780         1.425370        -1.893203
 H         3.635632        -0.326810        -2.213104
 H         2.706682         0.729349         1.864487
