19
Iteration:  1416charge 0 multiplicity 1
 C         0.113495         0.245194         0.297522
 C         1.550191        -0.174928        -0.135492
 C         1.953052        -1.673097        -0.003884
 C         3.278715        -1.147909         0.558420
 O         4.000110        -1.769078         1.641851
 C         3.801902         0.027507        -0.260489
 C         3.159034         0.520950        -1.580029
 O         1.731102         0.273514        -1.433919
 C         2.660545         0.166522         0.823529
 H         0.113745        -0.242452         1.316222
 H         0.053547         1.355577         0.451908
 H        -0.658911         0.083375        -0.524081
 H         1.339804        -2.265599         0.770125
 H         1.932508        -2.227282        -0.996034
 H         3.267021        -1.889493         2.295699
 H         4.742279         0.513685        -0.039216
 H         3.344105         1.583443        -1.525186
 H         3.431257         0.180792        -2.629003
 H         2.676377         1.004666         1.521803
