19
Iteration:   550
 C        -0.050043         0.159564         0.153380
 C         1.494197        -0.040887        -0.136353
 C         1.939124        -1.617097         0.023683
 C         3.222151        -1.087762         0.704221
 O         4.241229        -1.798805         1.419740
 C         3.716906         0.147410        -0.117226
 C         3.216268         0.224092        -1.569792
 O         1.831453         0.423333        -1.400826
 C         2.532554         0.239464         0.955333
 H        -0.288581        -0.520223         1.049403
 H        -0.149766         1.210742         0.585495
 H        -0.724636        -0.066235        -0.718456
 H         1.300850        -2.024126         0.709313
 H         2.068729        -2.256429        -0.819545
 H         3.857135        -2.706191         1.407206
 H         4.624487         0.557295         0.262562
 H         3.592377         0.994818        -2.191632
 H         3.388362        -0.652523        -2.137347
 H         2.464402         0.931845         1.757873
