19
Iteration:  2995
 C         0.056538         0.176374         0.189543
 C         1.490691        -0.092941        -0.160384
 C         1.939621        -1.621646         0.044059
 C         3.204818        -1.101221         0.666094
 O         4.134026        -1.942699         1.235868
 C         3.704649         0.198135         0.002840
 C         3.179867         0.272205        -1.446755
 O         1.757390         0.403801        -1.388573
 C         2.622461         0.317456         0.900580
 H        -0.413956        -0.191231         1.131644
 H        -0.156360         1.344318        -0.079202
 H        -0.425507        -0.534063        -0.525572
 H         1.492900        -2.174502         0.806768
 H         2.109649        -2.201139        -0.858621
 H         4.460228        -1.619129         2.098195
 H         4.769394         0.685365         0.279278
 H         3.652386         1.023324        -2.075377
 H         3.432206        -0.617053        -2.126340
 H         2.570589         0.874629         1.800844
