19
Iteration:   287charge 0 multiplicity 1
 C        -0.079688         0.095372         0.063792
 C         1.415714        -0.131777         0.002475
 C         1.955870        -1.652303         0.078695
 C         3.248627        -1.082004         0.712300
 O         4.050383        -1.910317         1.366710
 C         3.733728         0.104030        -0.158841
 C         3.238440         0.309631        -1.572036
 O         1.852025         0.492430        -1.290709
 C         2.655373         0.351653         0.881290
 H        -0.532107         0.075345         1.028849
 H        -0.428679         0.992764        -0.435642
 H        -0.442843        -0.616115        -0.532798
 H         1.459423        -2.233960         0.924633
 H         2.166455        -2.144274        -0.956847
 H         4.994853        -1.627955         1.427046
 H         4.721950         0.361142         0.202823
 H         3.766556         1.132053        -1.991975
 H         3.394920        -0.614164        -2.147251
 H         2.580912         1.177060         1.546301
