19
Iteration:  4106
 C         0.158563         0.371831         0.299512
 C         1.420370        -0.242915        -0.107653
 C         1.995654        -1.759538        -0.006967
 C         3.227735        -1.117788         0.488884
 O         3.939442        -1.805798         1.503209
 C         3.761513         0.129216        -0.163075
 C         3.199299         0.494733        -1.491196
 O         1.761122         0.281897        -1.346102
 C         2.592143         0.128877         0.779306
 H         0.104164         0.503855         1.371359
 H         0.286988         1.378395         0.122933
 H        -0.672674        -0.085816        -0.133139
 H         1.638019        -2.433424         0.786666
 H         2.011186        -2.272957        -1.076511
 H         4.878629        -1.961064         1.298770
 H         4.576574         0.567683         0.282051
 H         3.482852         1.608901        -1.682268
 H         3.672239        -0.116361        -2.334467
 H         2.676570         0.878539         1.631141
