19
Iteration:  2990
 C         0.019383         0.185272         0.174775
 C         1.495526        -0.091686        -0.159560
 C         1.967553        -1.586172         0.059156
 C         3.209384        -1.067367         0.657649
 O         4.135558        -1.959626         1.206647
 C         3.719322         0.235187        -0.035479
 C         3.182283         0.278266        -1.432104
 O         1.777013         0.370627        -1.417596
 C         2.617008         0.287585         0.935310
 H        -0.432185        -0.118459         1.117483
 H        -0.109694         1.182365         0.108669
 H        -0.531610        -0.459025        -0.507085
 H         1.395716        -2.126867         0.917299
 H         2.017853        -2.345949        -0.771157
 H         4.406206        -1.620853         2.076635
 H         4.647581         0.529527         0.210208
 H         3.686944         1.144326        -1.918881
 H         3.442951        -0.749702        -1.808425
 H         2.491181         0.845547         1.906477
