19
Iteration:  4515charge 0 multiplicity 1
 C         0.071844         0.159098         0.361486
 C         1.466140        -0.098211        -0.101602
 C         1.903615        -1.578939        -0.032493
 C         3.205173        -1.140005         0.684633
 O         4.019688        -1.888473         1.590283
 C         3.792548         0.002439        -0.186131
 C         3.244877         0.436013        -1.600466
 O         1.772722         0.399434        -1.456603
 C         2.648186         0.314578         0.782180
 H        -0.244933        -0.580840         1.116492
 H        -0.178538         1.201731         0.539068
 H        -0.700696         0.043154        -0.499872
 H         1.224718        -2.273820         0.622161
 H         2.091679        -2.224861        -0.929275
 H         4.613239        -2.419449         1.023639
 H         4.806608         0.361292         0.066044
 H         3.535603         1.485424        -1.773564
 H         3.603481        -0.249328        -2.319928
 H         2.718290         1.091977         1.497208
