19
Iteration:  3548charge 0 multiplicity 1
 C         0.032144         0.323743         0.140576
 C         1.439746        -0.148928         0.005820
 C         1.934932        -1.699294         0.034701
 C         3.168763        -1.101129         0.657869
 O         4.170764        -1.887543         1.307322
 C         3.701958         0.104235        -0.065155
 C         3.222747         0.409888        -1.502425
 O         1.814846         0.276122        -1.381143
 C         2.535218         0.296520         0.906135
 H        -0.462943         0.336263         1.104400
 H         0.151260         1.419196         0.022060
 H        -0.536500        -0.364558        -0.439470
 H         1.461511        -2.554884         0.677688
 H         2.000809        -2.320868        -1.006992
 H         4.959847        -1.740679         0.761428
 H         4.813878         0.463890         0.226748
 H         3.430380         1.531117        -1.577588
 H         3.604524        -0.344912        -2.164824
 H         2.517529         0.880145         1.815940
