19
Iteration:  2588charge 0 multiplicity 1
 C        -0.007253         0.219866         0.211604
 C         1.468522        -0.148823        -0.082027
 C         1.905823        -1.664339         0.052948
 C         3.263955        -1.100348         0.620712
 O         4.196555        -1.810753         1.507406
 C         3.763603         0.072770        -0.163456
 C         3.178289         0.464273        -1.562166
 O         1.743873         0.302199        -1.440588
 C         2.683906         0.241836         0.867595
 H        -0.221281         0.243271         1.281213
 H        -0.043456         1.245337        -0.113597
 H        -0.739588        -0.233429        -0.418752
 H         1.265517        -2.176774         0.786560
 H         1.833975        -2.263094        -0.888382
 H         3.587051        -2.444959         1.926095
 H         4.780894         0.277418        -0.170047
 H         3.324994         1.569896        -1.711298
 H         3.514449        -0.192586        -2.397984
 H         2.717466         0.836020         1.661399
