19
Iteration:  3987
 C         0.088840         0.109757         0.329527
 C         1.489275        -0.108102        -0.129980
 C         2.016799        -1.688498        -0.166553
 C         3.139703        -1.126815         0.673884
 O         3.966303        -1.781415         1.513617
 C         3.789958         0.016280        -0.164778
 C         3.177778         0.320766        -1.523615
 O         1.782330         0.546535        -1.342688
 C         2.668315         0.273094         0.831008
 H         0.033338         0.096928         1.530256
 H        -0.224855         1.187637         0.287571
 H        -0.607940        -0.556924        -0.238278
 H         1.384620        -2.340732         0.422122
 H         2.391245        -2.097481        -1.049676
 H         4.507215        -2.399268         0.986245
 H         4.776343         0.360782         0.071702
 H         3.501836         1.248455        -1.970148
 H         3.176222        -0.543575        -2.212275
 H         2.770100         1.001938         1.615685
