19
Iteration:  1429charge 0 multiplicity 1
 C         0.094536         0.189425         0.367942
 C         1.458458        -0.196777        -0.128122
 C         1.996078        -1.696112        -0.051804
 C         3.228749        -1.152610         0.624301
 O         3.964742        -1.762830         1.591070
 C         3.822807         0.018269        -0.230803
 C         3.175660         0.523811        -1.559499
 O         1.740933         0.355856        -1.464912
 C         2.750297         0.263114         0.741467
 H        -0.434761        -0.217011         1.347542
 H         0.054480         1.355087         0.351502
 H        -0.678131        -0.264729        -0.350845
 H         1.362909        -2.121979         0.765414
 H         2.087158        -2.405647        -0.868229
 H         3.449055        -1.833402         2.405420
 H         4.904611         0.161808         0.071596
 H         3.382222         1.548334        -1.877472
 H         3.606342        -0.227536        -2.338017
 H         2.798210         0.875707         1.671854
