19
Iteration:  4325charge 0 multiplicity 1
 C        -0.144175         0.164965         0.194005
 C         1.420567        -0.060520        -0.106807
 C         1.972135        -1.589655         0.129088
 C         3.270157        -1.130761         0.583103
 O         4.060961        -1.944605         1.364612
 C         3.790693         0.149056        -0.092517
 C         3.187303         0.140254        -1.544847
 O         1.871836         0.619923        -1.389072
 C         2.644688         0.252326         0.898903
 H        -0.245443        -0.477814         1.147753
 H        -0.254841         1.261658         0.015886
 H        -0.655530        -0.333870        -0.614789
 H         1.447610        -2.145685         0.812375
 H         1.932168        -2.275959        -0.763094
 H         4.787853        -1.360901         1.698219
 H         4.922655         0.450181         0.111159
 H         3.632773         0.919306        -2.271710
 H         3.170126        -0.845905        -1.955016
 H         2.779840         0.652844         1.844426
