19
Iteration:  3449
 C         0.024904         0.112788         0.245403
 C         1.467310        -0.168306        -0.126682
 C         1.977486        -1.675483        -0.146253
 C         3.227386        -1.128997         0.664263
 O         4.106680        -1.793466         1.551901
 C         3.714539         0.105127        -0.152194
 C         3.198599         0.276157        -1.595133
 O         1.783562         0.590646        -1.333925
 C         2.622001         0.264598         0.914614
 H        -0.163782        -0.442157         1.153824
 H        -0.162030         1.145915         0.680987
 H        -0.616321        -0.073968        -0.636120
 H         1.259388        -2.250341         0.463611
 H         2.139924        -2.066033        -1.182989
 H         4.597497        -2.498807         1.101887
 H         4.688762         0.414064         0.188236
 H         3.610517         1.074212        -2.250296
 H         3.144732        -0.732229        -1.984687
 H         2.611306         1.004517         1.703839
