19
Iteration:  1129
 C         0.090904         0.209114         0.288225
 C         1.444054        -0.215880        -0.127980
 C         1.957713        -1.671639        -0.086828
 C         3.225308        -1.074443         0.669302
 O         4.107255        -1.846350         1.493320
 C         3.813176         0.155280        -0.125075
 C         3.184449         0.513881        -1.597193
 O         1.773167         0.274828        -1.432504
 C         2.601619         0.232272         0.864999
 H        -0.021205         0.567961         1.268106
 H        -0.125590         1.152676        -0.211502
 H        -0.761447        -0.463745         0.258503
 H         1.364429        -2.226941         0.562385
 H         2.068810        -2.141628        -1.001463
 H         3.556124        -2.388828         2.067134
 H         4.768636         0.566088         0.172723
 H         3.444820         1.489363        -1.807634
 H         3.494554        -0.146665        -2.376880
 H         2.463901         0.697442         1.831221
