19
Iteration:  1069
 C         0.019153         0.114457         0.273527
 C         1.505429        -0.091730        -0.065165
 C         1.934320        -1.692571         0.011889
 C         3.240558        -1.125434         0.606471
 O         4.113681        -1.783215         1.529778
 C         3.686888         0.113101        -0.160541
 C         3.213521         0.432897        -1.574403
 O         1.776008         0.351088        -1.459996
 C         2.647363         0.299180         0.854419
 H        -0.134539        -0.700272         1.005886
 H        -0.097739         1.145398         0.564480
 H        -0.433627         0.111712        -0.695686
 H         1.290684        -2.186825         0.816892
 H         1.792872        -2.317904        -0.939821
 H         3.758972        -2.674760         1.647003
 H         4.735487         0.451306         0.076847
 H         3.593901         1.447983        -1.895776
 H         3.645134        -0.297539        -2.309760
 H         2.788812         1.089901         1.626359
