19
Iteration:   786
 C         0.135110         0.255293         0.423100
 C         1.500203        -0.150494        -0.163761
 C         1.984336        -1.749164        -0.084228
 C         3.183617        -1.142263         0.622667
 O         4.082667        -1.798549         1.505801
 C         3.758340         0.131192        -0.089472
 C         3.219562         0.503769        -1.588701
 O         1.799837         0.261899        -1.543654
 C         2.550120         0.211855         0.819429
 H        -0.021309         0.216546         1.555985
 H        -0.246616         1.307616         0.211908
 H        -0.695703        -0.402396         0.100999
 H         1.463837        -2.337447         0.719488
 H         2.135325        -2.207826        -1.063888
 H         3.619768        -2.129312         2.283911
 H         4.617315         0.654828         0.409927
 H         3.192635         1.600658        -1.714952
 H         3.605487        -0.133325        -2.385358
 H         2.381647         1.036200         1.572236
