19
Iteration:   589
 C        -0.000544         0.124965         0.133587
 C         1.433515        -0.144724        -0.098494
 C         1.993078        -1.592509         0.027970
 C         3.273963        -1.027424         0.679250
 O         4.133216        -1.906162         1.327570
 C         3.740401         0.202804        -0.047596
 C         3.204096         0.259475        -1.583958
 O         1.818355         0.396309        -1.294294
 C         2.593528         0.361372         0.892119
 H        -0.249298         0.076684         1.174697
 H        -0.478312         1.010345        -0.254903
 H        -0.524853        -0.648365        -0.410049
 H         1.229991        -2.277795         0.599495
 H         2.173056        -2.194577        -0.954777
 H         3.564396        -2.324125         1.997356
 H         4.750445         0.442634         0.266370
 H         3.525282         1.216708        -2.130342
 H         3.598665        -0.751669        -2.111442
 H         2.477873         1.155468         1.624061
