19
Iteration:  4818
 C         0.012730         0.400028         0.174315
 C         1.441852        -0.119400        -0.092112
 C         1.895061        -1.627928         0.194208
 C         3.237338        -1.086053         0.707540
 O         4.216561        -1.920184         1.303014
 C         3.675605         0.089220        -0.158435
 C         3.249922         0.343411        -1.576186
 O         1.809717         0.267793        -1.401306
 C         2.562284         0.254791         0.859660
 H        -0.417188         0.062372         1.155483
 H         0.162174         1.506506         0.122337
 H        -0.487352         0.180193        -0.733760
 H         1.257479        -2.236580         0.888374
 H         1.820742        -2.285626        -0.769602
 H         4.025458        -2.196932         2.228538
 H         4.683198         0.278371         0.086814
 H         3.608646         1.368961        -1.811520
 H         3.535782        -0.363947        -2.311374
 H         2.637723         0.819092         1.769149
