19
Iteration:  2105charge 0 multiplicity 1
 C        -0.112499         0.119872         0.169856
 C         1.429257        -0.069479        -0.075872
 C         1.951107        -1.586447         0.113925
 C         3.245339        -1.010367         0.691973
 O         4.137658        -1.952461         1.379449
 C         3.753626         0.067649        -0.143396
 C         3.286721         0.271395        -1.571756
 O         1.806816         0.492607        -1.356423
 C         2.632991         0.374576         0.886899
 H        -0.344450        -0.327736         1.153334
 H        -0.309826         1.163073        -0.071912
 H        -0.617567        -0.504891        -0.642119
 H         1.513605        -2.013427         1.074786
 H         1.991951        -2.436216        -0.721179
 H         4.372568        -2.665486         0.739601
 H         4.778255         0.421727         0.176813
 H         3.549088         1.132935        -2.147490
 H         3.311900        -0.715382        -2.151503
 H         2.548002         1.056786         1.733618
