19
Iteration:  3844charge 0 multiplicity 1
 C         0.007986         0.089648         0.269197
 C         1.451378        -0.079247        -0.046763
 C         1.998887        -1.542351        -0.103112
 C         3.269994        -1.157874         0.634465
 O         3.983132        -1.921396         1.479521
 C         3.722284         0.063180        -0.129805
 C         3.194467         0.349642        -1.556752
 O         1.761261         0.484602        -1.406074
 C         2.700113         0.326827         0.898115
 H        -0.023670        -0.226686         1.411676
 H        -0.416874         1.133081         0.228868
 H        -0.621326        -0.513588        -0.432776
 H         1.450926        -2.187548         0.600352
 H         2.110587        -1.982922        -1.085515
 H         4.811475        -2.225045         1.075437
 H         4.811520         0.305882         0.096779
 H         3.698919         1.345892        -1.886070
 H         3.382804        -0.540676        -2.117190
 H         2.875642         1.035564         1.718505
