19
Iteration:  4882
 C         0.117488         0.159594         0.459247
 C         1.432163        -0.100404        -0.126988
 C         1.933746        -1.667314        -0.040409
 C         3.178970        -1.138967         0.536859
 O         3.961855        -1.755426         1.620036
 C         3.821632         0.016617        -0.214649
 C         3.290061         0.328015        -1.584233
 O         1.765675         0.445910        -1.480182
 C         2.737697         0.270637         0.745992
 H         0.051079         0.070961         1.616669
 H        -0.293756         1.196409         0.356801
 H        -0.632828        -0.453775         0.038048
 H         1.286837        -2.176524         0.688779
 H         1.969352        -2.087568        -0.935230
 H         3.351170        -2.434338         1.937649
 H         4.838234         0.237814        -0.067929
 H         3.522248         1.335709        -1.917127
 H         3.506103        -0.409589        -2.430646
 H         2.763433         1.009076         1.527346
