19
Iteration:   672charge 0 multiplicity 1
 C         0.062176         0.278075         0.252441
 C         1.416846        -0.143804        -0.138097
 C         1.979239        -1.681781        -0.066184
 C         3.282667        -1.092793         0.636413
 O         4.119683        -1.822395         1.472508
 C         3.781118         0.157993        -0.108334
 C         3.217033         0.447373        -1.505381
 O         1.755997         0.222125        -1.456826
 C         2.564560         0.220860         0.877837
 H        -0.090187        -0.372806         1.130846
 H         0.171461         1.358472         0.431400
 H        -0.771180         0.031408        -0.526806
 H         1.468641        -2.296819         0.608329
 H         2.046570        -2.117793        -1.009183
 H         3.528575        -2.263428         2.105099
 H         4.729402         0.645695         0.258411
 H         3.365270         1.458963        -1.879078
 H         3.616286        -0.269822        -2.118702
 H         2.425324         0.943257         1.725072
