19
Iteration:  4263charge 0 multiplicity 1
 C         0.040451         0.279210         0.329596
 C         1.411075        -0.163036        -0.167364
 C         1.900542        -1.628144         0.053075
 C         3.253153        -1.141645         0.596934
 O         3.993445        -1.920936         1.487074
 C         3.831689         0.159886        -0.133295
 C         3.276613         0.512314        -1.570856
 O         1.802708         0.269000        -1.467487
 C         2.631444         0.168979         0.850456
 H        -0.259698         0.175269         1.382548
 H        -0.183878         1.345537         0.028376
 H        -0.808382        -0.261434        -0.189635
 H         1.328737        -1.944223         1.032835
 H         1.807602        -2.375606        -0.795776
 H         4.946092        -1.760638         1.294318
 H         4.840902         0.513451         0.077928
 H         3.264077         1.622404        -1.648581
 H         3.700416        -0.144228        -2.417660
 H         2.624210         0.747155         1.781657
