19
Iteration:  2410charge 0 multiplicity 1
 C        -0.036289         0.244086         0.128032
 C         1.477283        -0.088094        -0.096957
 C         1.934716        -1.611319         0.111507
 C         3.314518        -1.114234         0.677249
 O         4.291414        -1.951431         1.301343
 C         3.696711         0.186417        -0.107359
 C         3.199340         0.251270        -1.500518
 O         1.740936         0.407411        -1.403081
 C         2.573549         0.277353         0.905408
 H        -0.506902         0.081762         1.053353
 H        -0.272487         1.237261        -0.091551
 H        -0.595048        -0.520332        -0.471522
 H         1.309037        -2.028241         0.959260
 H         1.797402        -2.045933        -0.828278
 H         3.970458        -2.308817         2.143728
 H         4.520655         0.689536         0.202600
 H         3.609063         1.241430        -1.948919
 H         3.417588        -0.650871        -2.132300
 H         2.467195         1.010387         1.693022
