19
Iteration:    12charge 0 multiplicity 1
 C         0.092271         0.172968         0.292319
 C         1.480267        -0.140838        -0.206087
 C         1.975928        -1.615312        -0.009834
 C         3.219039        -1.061542         0.614610
 O         3.941754        -1.820510         1.576740
 C         3.781252         0.101805        -0.200227
 C         3.219744         0.453723        -1.510106
 O         1.816289         0.289927        -1.455342
 C         2.570246         0.240120         0.861973
 H         0.218730        -0.386161         1.208590
 H        -0.096978         1.232851         0.560271
 H        -0.693443        -0.260162        -0.308482
 H         1.449697        -2.045693         0.859305
 H         2.075529        -2.364813        -0.881284
 H         4.706777        -2.250492         1.121659
 H         4.688259         0.680853         0.001400
 H         3.525133         1.432622        -1.885705
 H         3.525366        -0.316923        -2.234601
 H         2.540035         0.705934         1.869832
