19
Iteration:   699charge 0 multiplicity 1
 C        -0.052786         0.150281         0.199243
 C         1.423102        -0.114936        -0.050931
 C         2.038895        -1.641530         0.046880
 C         3.240093        -1.052586         0.647299
 O         4.156050        -1.834096         1.324551
 C         3.709030         0.136786        -0.079103
 C         3.291567         0.206417        -1.506456
 O         1.812360         0.455905        -1.397800
 C         2.541705         0.366768         0.867344
 H        -0.381584        -0.707944         0.807275
 H        -0.075648         1.188390         0.561791
 H        -0.530135         0.127342        -0.735205
 H         1.529076        -2.336236         0.850794
 H         2.093987        -2.215594        -0.971098
 H         3.627092        -2.506717         1.792815
 H         4.745829         0.341919         0.161777
 H         3.621203         1.087423        -2.114336
 H         3.405107        -0.881732        -1.949569
 H         2.318310         1.100503         1.640547
