19
Iteration:  4195
 C         0.000861         0.168099         0.183324
 C         1.498663        -0.057262        -0.070297
 C         1.974232        -1.604805        -0.024615
 C         3.315020        -1.123362         0.614230
 O         4.060545        -1.904184         1.552351
 C         3.724040         0.138393        -0.171032
 C         3.160687         0.280592        -1.546226
 O         1.741229         0.449026        -1.381604
 C         2.711772         0.266563         0.875191
 H        -0.395233        -0.409760         1.077310
 H        -0.074434         1.159687         0.558654
 H        -0.545028         0.009546        -0.726159
 H         1.449540        -2.064378         0.858359
 H         2.052039        -2.171714        -1.064686
 H         3.975746        -2.786693         1.153697
 H         4.732464         0.592573         0.169836
 H         3.502060         1.329131        -1.876709
 H         3.282790        -0.602656        -2.300276
 H         2.710577         1.160555         1.464013
