19
Iteration:  3779
 C         0.045250         0.188796         0.395306
 C         1.448333        -0.183872        -0.147485
 C         1.967280        -1.629279        -0.149297
 C         3.217226        -1.154812         0.605122
 O         3.998834        -1.889025         1.548407
 C         3.786425         0.057621        -0.148495
 C         3.217842         0.465013        -1.565256
 O         1.803579         0.442684        -1.404190
 C         2.617580         0.227436         0.804960
 H        -0.062467        -0.268060         1.413305
 H         0.014464         1.192686         0.716880
 H        -0.758215        -0.126299        -0.232554
 H         1.337592        -2.318629         0.487187
 H         1.996344        -2.147893        -1.134470
 H         4.939099        -1.623440         1.535170
 H         4.765347         0.384904         0.177300
 H         3.405446         1.558578        -1.846542
 H         3.557044        -0.290755        -2.296392
 H         2.502660         0.874848         1.698395
