19
Iteration:  3365charge 0 multiplicity 1
 C         0.063616         0.262308         0.218200
 C         1.465838        -0.259994        -0.119933
 C         1.926813        -1.725618         0.106155
 C         3.209529        -1.141325         0.580319
 O         3.993187        -1.818940         1.457786
 C         3.803368         0.118695        -0.208986
 C         3.207260         0.606557        -1.432189
 O         1.787377         0.296626        -1.451977
 C         2.656156         0.185691         0.846227
 H        -0.184744         0.081358         1.271226
 H         0.032267         1.319614        -0.114901
 H        -0.717644        -0.377410        -0.085824
 H         1.300665        -2.270694         0.882994
 H         1.883314        -2.396436        -0.728601
 H         4.855012        -2.046939         1.060660
 H         4.741133         0.481895         0.225769
 H         3.477618         1.685830        -1.389013
 H         3.632513         0.271607        -2.455178
 H         2.634993         0.794477         1.725246
