19
Iteration:  2635charge 0 multiplicity 1
 C         0.169275         0.280049         0.277219
 C         1.472017        -0.204894        -0.150843
 C         1.905098        -1.686856         0.084358
 C         3.129650        -1.073888         0.657571
 O         4.167060        -1.808895         1.395783
 C         3.656765         0.170882        -0.080267
 C         3.157656         0.496574        -1.578442
 O         1.809054         0.147292        -1.514724
 C         2.675555         0.300986         0.874250
 H        -0.020155        -0.135656         1.294834
 H         0.101039         1.419866         0.424181
 H        -0.645518         0.065650        -0.405515
 H         1.252312        -2.135148         0.741341
 H         2.010922        -2.375789        -0.783729
 H         3.806987        -2.558815         1.924164
 H         4.746418         0.424338         0.104462
 H         3.347226         1.600486        -1.724638
 H         3.617553        -0.263557        -2.221634
 H         2.319108         0.894285         1.898360
