19
Iteration:  2401
 C        -0.016992         0.212688         0.107708
 C         1.421145        -0.081725        -0.072336
 C         1.965939        -1.614509         0.097498
 C         3.245983        -1.076874         0.698398
 O         4.251195        -1.867209         1.311998
 C         3.719947         0.120869        -0.128029
 C         3.162454         0.247840        -1.556879
 O         1.796798         0.467095        -1.315344
 C         2.593629         0.218770         0.894098
 H        -0.271530        -0.072123         1.151046
 H        -0.302589         1.231146        -0.179543
 H        -0.670453        -0.397931        -0.648722
 H         1.553209        -2.226039         0.875451
 H         1.981036        -2.321124        -0.747217
 H         3.752999        -2.458623         1.898271
 H         4.636532         0.672636         0.145445
 H         3.600542         1.133390        -2.182433
 H         3.294843        -0.739660        -2.076740
 H         2.701049         1.011358         1.698422
