19
Iteration:  1491charge 0 multiplicity 1
 C        -0.071183         0.218901         0.082703
 C         1.459870        -0.100056        -0.069906
 C         1.970134        -1.627502         0.076100
 C         3.260387        -1.059087         0.683823
 O         4.182984        -1.840575         1.333688
 C         3.737250         0.120231        -0.148449
 C         3.175675         0.180183        -1.557338
 O         1.824466         0.427662        -1.282778
 C         2.615716         0.347994         0.914430
 H        -0.419643         0.010987         1.127844
 H        -0.316049         1.278741        -0.027735
 H        -0.550176        -0.560910        -0.573847
 H         1.413717        -2.271092         0.847930
 H         2.124453        -2.274832        -0.862899
 H         3.701175        -2.473645         1.884094
 H         4.807209         0.305113         0.069562
 H         3.613326         0.931267        -2.282015
 H         3.296280        -0.793176        -2.029858
 H         2.584660         1.244980         1.623845
