19
Iteration:  3509charge 0 multiplicity 1
 C         0.109028         0.277520         0.261344
 C         1.483599        -0.194769        -0.083820
 C         1.857402        -1.696514         0.146156
 C         3.272008        -1.122470         0.573016
 O         4.004070        -1.939204         1.398489
 C         3.745725         0.199676        -0.131095
 C         3.183561         0.650894        -1.465091
 O         1.864962         0.184999        -1.540014
 C         2.595379         0.238728         0.856727
 H        -0.057240         0.077999         1.377555
 H        -0.143610         1.265382        -0.128997
 H        -0.648745        -0.466153        -0.126433
 H         1.355468        -2.067218         1.056224
 H         1.681023        -2.400521        -0.607334
 H         4.940249        -1.946670         1.125545
 H         4.668873         0.621514         0.203794
 H         3.376346         1.694356        -1.671068
 H         3.709146         0.193611        -2.362059
 H         2.392668         0.596618         1.868557
