19
Iteration:  1841
 C         0.101935         0.267812         0.246216
 C         1.425061        -0.210228        -0.144222
 C         1.869625        -1.671742        -0.043746
 C         3.323902        -1.166212         0.537586
 O         4.143120        -1.779798         1.591174
 C         3.785939         0.031977        -0.183212
 C         3.102278         0.486507        -1.521312
 O         1.770557         0.344492        -1.380931
 C         2.676710         0.176414         0.773841
 H        -0.188902         0.090749         1.374151
 H        -0.140053         1.449824         0.249736
 H        -0.710920        -0.255257        -0.369620
 H         1.406593        -2.269163         0.812823
 H         1.817012        -2.250985        -1.046114
 H         3.587542        -1.561576         2.375393
 H         4.786110         0.381967         0.156798
 H         3.477644         1.484000        -1.811344
 H         3.481239        -0.165120        -2.431354
 H         2.587513         0.828104         1.705304
