19
Iteration:  4965
 C        -0.004200         0.375402         0.157138
 C         1.501081        -0.149149        -0.029586
 C         1.832800        -1.664121         0.258805
 C         3.145157        -1.118054         0.688607
 O         4.200350        -1.845883         1.322391
 C         3.707678         0.008826        -0.184047
 C         3.249724         0.398972        -1.536124
 O         1.822309         0.259778        -1.494935
 C         2.654548         0.342692         0.849507
 H        -0.404986        -0.280256         0.884998
 H         0.141593         1.420873         0.236612
 H        -0.408598         0.114956        -0.821019
 H         1.288509        -2.045593         1.127464
 H         1.716929        -2.416832        -0.641928
 H         3.935822        -2.388455         2.095119
 H         4.667651         0.424434         0.101435
 H         3.449675         1.438766        -1.840028
 H         3.545623        -0.272832        -2.286547
 H         2.808939         0.794204         1.811262
