19
Iteration:  1338
 C        -0.085458         0.189920         0.009339
 C         1.429209        -0.083718        -0.102124
 C         1.915081        -1.551555         0.125988
 C         3.260251        -1.026301         0.689020
 O         4.262885        -1.895367         1.233142
 C         3.765313         0.096595        -0.030191
 C         3.175251         0.143123        -1.499057
 O         1.802222         0.431534        -1.335505
 C         2.600806         0.384676         0.987076
 H        -0.196940        -0.120623         1.078619
 H        -0.452725         1.207050        -0.267991
 H        -0.565936        -0.666202        -0.582538
 H         1.442100        -2.074827         1.004315
 H         1.964602        -2.192035        -0.808636
 H         3.803788        -2.605843         1.734952
 H         4.718879         0.505484         0.239535
 H         3.521210         0.908352        -2.185230
 H         3.406490        -0.863454        -1.985225
 H         2.739692         1.248924         1.614509
