19
Iteration:  4147
 C         0.012656         0.066243         0.260545
 C         1.491679        -0.053898        -0.119737
 C         1.878374        -1.529933        -0.039400
 C         3.242883        -1.146136         0.659266
 O         4.075959        -1.853472         1.521626
 C         3.773456        -0.007990        -0.150528
 C         3.196497         0.277689        -1.547150
 O         1.788367         0.552733        -1.371368
 C         2.661315         0.291978         0.848736
 H        -0.043836        -0.299723         1.242286
 H        -0.451396         1.097121         0.125124
 H        -0.526753        -0.635479        -0.433404
 H         1.230721        -2.006125         0.673194
 H         2.029946        -1.957382        -1.096286
 H         4.571198        -2.521891         0.982217
 H         4.659933         0.453133         0.152819
 H         3.656259         1.216550        -2.083217
 H         3.223433        -0.705434        -2.066763
 H         2.878323         1.153275         1.533710
