19
Iteration:  4000
 C        -0.003393         0.148776         0.241763
 C         1.476136        -0.105292        -0.092892
 C         2.019611        -1.620578        -0.130098
 C         3.271070        -1.106073         0.601837
 O         4.062431        -1.841394         1.525296
 C         3.777151         0.069740        -0.131571
 C         3.140792         0.199789        -1.523959
 O         1.737554         0.610071        -1.286378
 C         2.685580         0.275168         0.844318
 H        -0.187921        -0.343103         1.264392
 H        -0.286699         1.188081        -0.031076
 H        -0.698942        -0.466704        -0.392582
 H         1.297097        -2.258709         0.460327
 H         2.109357        -1.991319        -1.102704
 H         4.340881        -2.682513         1.112685
 H         4.739881         0.376923         0.073454
 H         3.758703         0.974284        -2.086300
 H         3.242983        -0.740888        -2.088258
 H         2.621995         1.070134         1.631836
