19
Iteration:  1969
 C         0.020148         0.153641         0.320289
 C         1.417434        -0.087503        -0.143236
 C         2.051108        -1.655615        -0.023433
 C         3.295393        -1.107011         0.692403
 O         4.049878        -1.815453         1.623037
 C         3.774310         0.048571        -0.235049
 C         3.178655         0.246768        -1.682172
 O         1.745340         0.575741        -1.388960
 C         2.625957         0.241918         0.816435
 H        -0.155860        -0.224686         1.313406
 H        -0.409830         1.173563         0.287973
 H        -0.565246        -0.496952        -0.343743
 H         1.396364        -2.176287         0.698211
 H         2.246360        -2.130834        -0.978117
 H         4.015876        -2.775742         1.503028
 H         4.702691         0.676779        -0.062958
 H         3.543291         1.174910        -2.164299
 H         3.165119        -0.664918        -2.233677
 H         3.121209         0.950902         1.663313
