19
Iteration:  2137
 C         0.135809         0.153901         0.363151
 C         1.503290        -0.122721        -0.134750
 C         1.942834        -1.622473        -0.134335
 C         3.217227        -1.142489         0.605080
 O         3.954865        -1.808433         1.612117
 C         3.803197         0.072478        -0.207990
 C         3.210899         0.420488        -1.571819
 O         1.728371         0.394012        -1.382811
 C         2.668123         0.280677         0.837587
 H        -0.177003        -0.163737         1.374939
 H        -0.226755         1.190043         0.346186
 H        -0.549960        -0.446056        -0.308336
 H         1.486185        -2.241888         0.692345
 H         2.054683        -2.261758        -1.076711
 H         4.497111        -2.452148         1.129445
 H         4.853618         0.398000         0.073497
 H         3.479863         1.391863        -2.034585
 H         3.509263        -0.387585        -2.312520
 H         2.499943         0.880838         1.735339
