19
Iteration:  3216charge 0 multiplicity 1
 C         0.097297         0.189290         0.400316
 C         1.427286        -0.224518        -0.140364
 C         1.995065        -1.698392        -0.155103
 C         3.291969        -1.142550         0.608391
 O         4.017664        -1.846586         1.634279
 C         3.683019         0.201168        -0.156235
 C         3.212510         0.492571        -1.544882
 O         1.748205         0.431093        -1.541415
 C         2.633397         0.224864         0.854909
 H         0.123121        -0.176619         1.455143
 H        -0.060265         1.251679         0.565920
 H        -0.753693        -0.172197        -0.248496
 H         1.436540        -2.349162         0.401435
 H         2.263202        -2.160425        -1.074004
 H         4.132106        -2.755494         1.270209
 H         4.692483         0.385388         0.143172
 H         3.517078         1.563225        -1.731411
 H         3.709119        -0.342462        -2.119502
 H         2.733819         0.650011         1.810866
