19
Iteration:  2982charge 0 multiplicity 1
 C        -0.025427         0.167979         0.149705
 C         1.427196        -0.143497        -0.058110
 C         1.973051        -1.584964         0.074751
 C         3.258598        -1.022758         0.637116
 O         4.136389        -1.974268         1.191530
 C         3.717665         0.242039        -0.061086
 C         3.246724         0.296938        -1.456733
 O         1.813305         0.353837        -1.445187
 C         2.574347         0.279290         0.989437
 H        -0.175731        -0.116319         1.223092
 H        -0.230520         1.302261         0.138815
 H        -0.739987        -0.148418        -0.594785
 H         1.329634        -1.904410         0.869697
 H         1.913763        -2.276870        -0.693233
 H         4.386978        -1.688106         2.082069
 H         4.809014         0.431725         0.148327
 H         3.579721         1.135930        -2.041040
 H         3.590768        -0.730210        -1.855844
 H         2.418474         0.846434         1.834383
