19
Iteration:  4705charge 0 multiplicity 1
 C         0.188612         0.275979         0.515767
 C         1.499974        -0.189669        -0.159724
 C         1.853482        -1.738526        -0.107597
 C         3.218860        -1.197397         0.559362
 O         3.945964        -1.767675         1.589703
 C         3.792085         0.025222        -0.193336
 C         3.227036         0.516626        -1.556859
 O         1.822313         0.349350        -1.499098
 C         2.658042         0.212669         0.737499
 H         0.072841        -0.129871         1.540015
 H        -0.084478         1.323125         0.453452
 H        -0.722699        -0.192221         0.063737
 H         1.294393        -2.515106         0.529307
 H         1.968699        -2.132885        -1.150394
 H         3.708912        -1.204630         2.337751
 H         4.804982         0.268205         0.056061
 H         3.593250         1.510343        -1.735304
 H         3.460130        -0.095398        -2.391538
 H         2.496858         0.746136         1.663120
