19
Iteration:  4007
 C        -0.026657         0.113353         0.200779
 C         1.441744        -0.105078        -0.039859
 C         1.975801        -1.574126        -0.092827
 C         3.313951        -1.105478         0.603603
 O         4.109622        -1.880384         1.537282
 C         3.760465         0.087979        -0.141761
 C         3.163697         0.211856        -1.592397
 O         1.770318         0.620747        -1.302648
 C         2.637174         0.254482         0.865177
 H        -0.342536        -0.152221         1.286364
 H        -0.255147         1.195317         0.100254
 H        -0.553640        -0.376775        -0.632256
 H         1.431529        -2.117752         0.632240
 H         2.069780        -1.931507        -1.140975
 H         4.287278        -2.770766         1.162757
 H         4.789989         0.462727        -0.023383
 H         3.574709         0.966353        -2.170785
 H         3.210710        -0.829529        -1.948138
 H         2.656310         0.874067         1.723299
