19
Iteration:  4572charge 0 multiplicity 1
 C         0.035365         0.287270         0.349057
 C         1.474324        -0.167257        -0.097022
 C         1.893682        -1.661482        -0.116084
 C         3.250687        -1.186929         0.529777
 O         3.959344        -1.758075         1.601217
 C         3.765889         0.126077        -0.141433
 C         3.208821         0.456674        -1.555292
 O         1.817241         0.333575        -1.430842
 C         2.678642         0.144460         0.825005
 H         0.114794         0.213814         1.388460
 H         0.068648         1.334460         0.118972
 H        -0.786275        -0.310478        -0.071052
 H         1.355568        -2.328979         0.675535
 H         2.137837        -2.098264        -1.107491
 H         4.478556        -2.559072         1.387694
 H         4.816205         0.491465         0.057628
 H         3.402459         1.461129        -1.867926
 H         3.602879        -0.140013        -2.340492
 H         2.827554         0.492648         1.871820
