19
Iteration:  3335
 C         0.015602         0.311176         0.194573
 C         1.417149        -0.215119        -0.091916
 C         1.860407        -1.635838         0.027916
 C         3.269928        -1.164220         0.518296
 O         4.188084        -1.831824         1.411677
 C         3.701181         0.194310        -0.042252
 C         3.236409         0.457932        -1.446657
 O         1.832249         0.251991        -1.488514
 C         2.571117         0.188856         0.949724
 H        -0.097273         0.385357         1.319020
 H        -0.202646         1.315514        -0.083902
 H        -0.760131        -0.417139        -0.182717
 H         1.199562        -2.110534         0.805518
 H         1.764136        -2.217104        -1.029844
 H         4.837287        -2.325589         0.890817
 H         4.724490         0.605053         0.392222
 H         3.408787         1.584499        -1.576358
 H         3.643300        -0.288794        -2.049829
 H         2.439222         0.843277         1.790695
