19
Iteration:  3113charge 0 multiplicity 1
 C         0.059843         0.164894         0.235410
 C         1.464146        -0.130601        -0.114232
 C         1.962842        -1.642858        -0.031602
 C         3.231476        -1.051834         0.675120
 O         4.036737        -1.935962         1.373822
 C         3.718322         0.167408        -0.151647
 C         3.203208         0.336113        -1.569502
 O         1.827351         0.404631        -1.334379
 C         2.574374         0.263111         0.961290
 H        -0.283731        -0.415131         1.085954
 H        -0.099825         1.293022         0.375994
 H        -0.652127        -0.070795        -0.544365
 H         1.433682        -2.361358         0.696495
 H         2.093053        -2.103708        -1.025010
 H         4.818108        -1.416158         1.637069
 H         4.781751         0.646758         0.115377
 H         3.648639         1.084690        -2.294275
 H         3.475306        -0.523375        -2.246472
 H         2.524949         0.838470         1.878465
