19
Iteration:  2467
 C         0.081988         0.234047         0.284087
 C         1.501321        -0.178549        -0.136100
 C         1.879578        -1.697550         0.100676
 C         3.225542        -1.138470         0.540666
 O         4.146688        -1.832630         1.467560
 C         3.706989         0.122352        -0.143072
 C         3.171966         0.590449        -1.493556
 O         1.796663         0.188295        -1.501369
 C         2.668549         0.264659         0.812819
 H         0.067815        -0.006235         1.349576
 H         0.026130         1.314787         0.152257
 H        -0.735705        -0.066205        -0.437443
 H         1.395537        -2.171599         0.962671
 H         1.531021        -2.165420        -0.815839
 H         3.648449        -2.174538         2.245090
 H         4.805222         0.254293         0.266623
 H         3.298232         1.713373        -1.797412
 H         3.612191         0.122190        -2.420542
 H         2.573921         0.864693         1.805487
