19
Iteration:   935
 C         0.162437         0.201889         0.390744
 C         1.480940        -0.189194        -0.131607
 C         2.030917        -1.649997        -0.043516
 C         3.189072        -1.089416         0.666510
 O         4.028598        -1.857078         1.505403
 C         3.762517         0.171213        -0.150275
 C         3.210553         0.531353        -1.527781
 O         1.746255         0.219411        -1.494321
 C         2.592423         0.282228         0.780870
 H        -0.005371         0.148023         1.431206
 H         0.052167         1.193822         0.008646
 H        -0.690967        -0.271160        -0.124905
 H         1.369634        -2.226562         0.669103
 H         2.328243        -2.399558        -0.845091
 H         3.417303        -2.471700         1.925746
 H         4.831644         0.302220         0.021014
 H         3.296112         1.560564        -1.896028
 H         3.592480         0.028869        -2.419805
 H         2.407278         0.986444         1.596562
