19
Iteration:   637charge 0 multiplicity 1
 C         0.061806         0.162814         0.226720
 C         1.462097        -0.222420        -0.156248
 C         1.853741        -1.749137         0.022368
 C         3.203053        -1.134159         0.633595
 O         4.090983        -1.739516         1.512455
 C         3.804639         0.006808        -0.242095
 C         3.250760         0.681929        -1.487464
 O         1.818858         0.295475        -1.402726
 C         2.625433         0.132016         0.778308
 H         0.107416         0.339630         1.346480
 H        -0.156647         1.245380        -0.005580
 H        -0.854961        -0.308076        -0.096772
 H         1.440704        -2.359945         0.773379
 H         1.793623        -2.329923        -0.904760
 H         3.725168        -1.782127         2.413860
 H         4.742944         0.461769         0.176937
 H         3.479459         1.762265        -1.443600
 H         3.566200         0.269700        -2.424047
 H         2.605828         1.009591         1.464215
