19
Iteration:   695charge 0 multiplicity 1
 C        -0.048092         0.152812         0.240293
 C         1.414042        -0.130109        -0.060181
 C         2.034939        -1.649303         0.019348
 C         3.258234        -1.053680         0.665750
 O         4.134814        -1.833644         1.334593
 C         3.675511         0.168742        -0.078683
 C         3.293604         0.210797        -1.555177
 O         1.833214         0.421355        -1.384718
 C         2.556947         0.349083         0.853851
 H        -0.589742        -0.569201         0.894682
 H        -0.009494         1.212137         0.547389
 H        -0.596682         0.169967        -0.800210
 H         1.618490        -2.272270         0.759759
 H         2.075239        -2.137242        -0.898619
 H         3.634138        -2.508030         1.822412
 H         4.686244         0.434454         0.178043
 H         3.730334         1.089838        -1.988692
 H         3.523227        -0.692171        -2.013760
 H         2.364074         1.045171         1.642361
