19
Iteration:  1262charge 0 multiplicity 1
 C         0.118609         0.228323         0.460484
 C         1.433556        -0.188609        -0.150669
 C         1.970208        -1.764233        -0.126369
 C         3.170512        -1.152089         0.605185
 O         4.013856        -1.724521         1.545720
 C         3.729710         0.053858        -0.160219
 C         3.241870         0.494450        -1.529568
 O         1.859219         0.319645        -1.471119
 C         2.596842         0.251348         0.712157
 H         0.127503        -0.397068         1.426789
 H         0.292535         1.254006         0.844207
 H        -0.824969        -0.187192        -0.033232
 H         1.361485        -2.456186         0.422335
 H         2.191354        -2.104361        -1.107454
 H         3.571391        -1.634361         2.393858
 H         4.690391         0.478778         0.174242
 H         3.329060         1.486013        -1.904373
 H         3.710566        -0.265073        -2.307120
 H         2.586654         0.973444         1.521662
