19
Iteration:   687charge 0 multiplicity 1
 C        -0.030492         0.187711         0.263218
 C         1.447960        -0.215165        -0.090237
 C         2.004269        -1.615354        -0.025724
 C         3.250903        -1.034607         0.661266
 O         4.125651        -1.842937         1.380726
 C         3.704459         0.201251        -0.093740
 C         3.253469         0.269714        -1.563852
 O         1.852312         0.343284        -1.389557
 C         2.547694         0.302034         0.865280
 H        -0.674621        -0.214803         1.053540
 H        -0.101653         1.217944         0.655451
 H        -0.635871         0.186399        -0.648611
 H         1.403008        -2.288152         0.715202
 H         2.138191        -2.182727        -1.013369
 H         3.630815        -2.474074         1.916538
 H         4.555599         0.729803         0.261894
 H         3.745861         1.165721        -1.989053
 H         3.686028        -0.531593        -2.309496
 H         2.613266         0.987981         1.667870
