19
Iteration:  2220
 C        -0.157102         0.099012         0.203169
 C         1.425986        -0.077080        -0.017022
 C         1.969994        -1.529028         0.054245
 C         3.276385        -1.075053         0.584389
 O         4.087697        -1.914499         1.445952
 C         3.809344         0.089489        -0.116079
 C         3.248815         0.283400        -1.570261
 O         1.803406         0.422059        -1.371031
 C         2.661993         0.344271         0.814281
 H        -0.311954        -0.404937         1.192342
 H        -0.333422         1.214746         0.308745
 H        -0.753214        -0.322660        -0.511217
 H         1.560602        -2.123220         0.883358
 H         2.038203        -2.086358        -0.852919
 H         4.345714        -2.693636         0.895260
 H         4.732914         0.686026         0.188687
 H         3.553255         1.300555        -1.799651
 H         3.635826        -0.495999        -2.235601
 H         2.590417         0.937663         1.668082
