19
Iteration:  2287charge 0 multiplicity 1
 C        -0.081016         0.297474         0.265811
 C         1.402093        -0.055966        -0.134223
 C         1.939033        -1.680517         0.005425
 C         3.278405        -1.215750         0.623027
 O         4.160477        -1.829443         1.501741
 C         3.771305         0.066130        -0.114693
 C         3.236690         0.355209        -1.515675
 O         1.744148         0.368917        -1.447023
 C         2.659239         0.223078         0.825833
 H        -0.264170         0.082107         1.339709
 H        -0.303378         1.383813         0.106437
 H        -0.864603        -0.202440        -0.283605
 H         1.374569        -2.291253         0.794059
 H         1.936403        -2.301295        -0.910942
 H         5.043149        -1.944366         1.136667
 H         4.796804         0.631416         0.196340
 H         3.448776         1.429894        -1.833931
 H         3.369802        -0.446660        -2.313596
 H         2.659849         0.896421         1.793462
