19
Iteration:  2918
 C         0.061531         0.208540         0.285772
 C         1.502486        -0.173259        -0.069291
 C         1.938281        -1.713015        -0.019761
 C         3.264342        -1.230636         0.589663
 O         4.077423        -1.807355         1.553977
 C         3.744127         0.079981        -0.253077
 C         3.184027         0.564600        -1.568428
 O         1.758874         0.398683        -1.420412
 C         2.657199         0.180297         0.796546
 H        -0.255242        -0.278574         1.253042
 H        -0.023841         1.358512         0.461657
 H        -0.573284        -0.266282        -0.437114
 H         1.301045        -2.208417         0.699922
 H         1.996094        -2.350690        -0.908899
 H         3.665085        -1.769202         2.443343
 H         4.770650         0.499468        -0.017154
 H         3.414960         1.618273        -1.698431
 H         3.511019        -0.097192        -2.342529
 H         2.732628         0.780321         1.631899
