19
Iteration:  2744charge 0 multiplicity 1
 C         0.042655         0.168027         0.370129
 C         1.437424        -0.172714        -0.075676
 C         2.013023        -1.601762        -0.019373
 C         3.262368        -1.120416         0.598803
 O         4.060317        -1.804964         1.443695
 C         3.740282         0.144766        -0.143578
 C         3.248088         0.351233        -1.564415
 O         1.778141         0.320746        -1.459984
 C         2.593141         0.307923         0.815743
 H         0.023129        -0.159144         1.416463
 H        -0.067044         1.275301         0.268549
 H        -0.719415        -0.271784        -0.215134
 H         1.381487        -2.177424         0.680624
 H         2.067827        -2.258600        -0.989705
 H         3.429313        -2.203118         2.064598
 H         4.708311         0.475671         0.181205
 H         3.527483         1.336147        -2.068023
 H         3.667244        -0.338889        -2.314991
 H         2.665385         0.894083         1.816802
