19
Iteration:  1512
 C         0.017140         0.236595         0.088916
 C         1.451823        -0.162315        -0.006185
 C         1.872264        -1.580214         0.160375
 C         3.293340        -1.089201         0.659816
 O         4.205517        -1.813505         1.399374
 C         3.738721         0.017685        -0.164117
 C         3.206490         0.340804        -1.521072
 O         1.702765         0.322613        -1.443192
 C         2.665985         0.309428         0.863609
 H        -0.368765         0.092952         1.100261
 H         0.094362         1.343094        -0.025431
 H        -0.465873        -0.356937        -0.760525
 H         1.398799        -2.098139         1.033498
 H         1.822849        -2.254815        -0.740096
 H         3.752672        -2.654949         1.608525
 H         4.643648         0.588492         0.132677
 H         3.541130         1.428918        -1.796660
 H         3.661249        -0.313790        -2.259186
 H         2.582277         0.954303         1.796137
