19
Iteration:  1607
 C        -0.036027         0.179447         0.183714
 C         1.484617        -0.121326        -0.096148
 C         2.024937        -1.665616         0.000655
 C         3.262828        -1.133385         0.601337
 O         4.144929        -1.790271         1.474426
 C         3.717749         0.003202        -0.148607
 C         3.153198         0.238313        -1.573361
 O         1.765556         0.507942        -1.329829
 C         2.664611         0.322779         0.815680
 H        -0.275298        -0.083218         1.218866
 H        -0.169288         1.216204         0.155715
 H        -0.534378        -0.472133        -0.469586
 H         1.327269        -1.990672         0.742549
 H         2.078057        -2.321053        -0.852451
 H         3.736453        -1.856691         2.348468
 H         4.661801         0.490972         0.134991
 H         3.684880         0.977017        -2.066240
 H         3.128550        -0.703172        -2.189685
 H         2.677702         1.132772         1.627674
