19
Iteration:  3181charge 0 multiplicity 1
 C         0.029883         0.170029         0.194975
 C         1.460609        -0.202488        -0.069943
 C         1.935707        -1.652416         0.053616
 C         3.199049        -1.062991         0.558897
 O         4.031950        -1.856812         1.350023
 C         3.750859         0.124196        -0.095038
 C         3.241947         0.477876        -1.416932
 O         1.820094         0.303752        -1.384805
 C         2.638249         0.333424         0.888407
 H        -0.202064        -0.025119         1.252637
 H        -0.147117         1.232788        -0.134894
 H        -0.613097        -0.563037        -0.233469
 H         1.423408        -2.178477         0.840355
 H         1.949225        -2.246566        -0.863757
 H         4.474047        -2.530601         0.784542
 H         4.736955         0.353645         0.084497
 H         3.399796         1.529585        -1.791219
 H         3.717903        -0.095197        -2.272801
 H         2.690387         0.870378         1.890956
