19
Iteration:  4678charge 0 multiplicity 1
 C         0.109115         0.272221         0.308800
 C         1.491480        -0.163412        -0.148944
 C         1.976306        -1.666853         0.017220
 C         3.232502        -1.128672         0.699285
 O         4.049562        -1.917359         1.476389
 C         3.708570        -0.000146        -0.168586
 C         3.223166         0.448350        -1.558437
 O         1.741956         0.406599        -1.458483
 C         2.618941         0.255754         0.766891
 H        -0.240368        -0.148857         1.265615
 H         0.032659         1.378188         0.473235
 H        -0.750968         0.121164        -0.446697
 H         1.385460        -2.285729         0.633554
 H         2.095359        -2.316101        -0.836340
 H         4.286940        -1.466132         2.304596
 H         4.694081         0.454959         0.150996
 H         3.676803         1.465060        -1.816147
 H         3.340041        -0.401647        -2.312572
 H         2.633560         0.905402         1.660709
