19
Iteration:  4318
 C        -0.083045         0.130644         0.122312
 C         1.417096        -0.028897        -0.120418
 C         1.952279        -1.585147         0.117181
 C         3.268332        -1.098157         0.661436
 O         4.066433        -1.994799         1.331588
 C         3.763802         0.137329        -0.096049
 C         3.173523         0.189783        -1.517799
 O         1.854212         0.571636        -1.368218
 C         2.683991         0.293709         0.904711
 H        -0.250166        -0.110632         1.143979
 H        -0.393540         1.169498         0.210791
 H        -0.608695        -0.484299        -0.609425
 H         1.390139        -2.167658         0.995117
 H         1.917160        -2.183243        -0.829871
 H         4.854911        -1.576811         1.709537
 H         4.717901         0.507886         0.014093
 H         3.557853         0.836777        -2.365825
 H         3.290734        -0.819932        -2.054464
 H         2.821359         0.881881         1.879969
