19
Iteration:   842charge 0 multiplicity 1
 C        -0.003225         0.107829         0.142956
 C         1.462258        -0.131421        -0.131588
 C         1.946960        -1.593406         0.105524
 C         3.275500        -1.087140         0.635477
 O         4.177584        -1.879645         1.463666
 C         3.771413         0.122413        -0.173988
 C         3.165622         0.356940        -1.546500
 O         1.733042         0.416222        -1.384060
 C         2.655012         0.313402         0.883559
 H        -0.388173        -0.428309         1.047495
 H        -0.188672         1.213133         0.120936
 H        -0.663999        -0.141775        -0.685305
 H         1.354278        -2.208697         0.827423
 H         1.942357        -2.218294        -0.811219
 H         3.602696        -2.438854         2.046550
 H         4.751578         0.468230         0.089206
 H         3.561519         1.295863        -1.985448
 H         3.538537        -0.390523        -2.262079
 H         2.784015         0.953649         1.719407
