19
Iteration:  3695
 C        -0.049417         0.191559         0.152684
 C         1.458752        -0.071842        -0.068894
 C         1.893935        -1.585530         0.022550
 C         3.212473        -1.139216         0.650577
 O         4.183399        -1.937225         1.379270
 C         3.738075         0.052288        -0.138623
 C         3.260744         0.429235        -1.526673
 O         1.780540         0.369380        -1.330658
 C         2.604252         0.271703         0.946475
 H        -0.313735        -0.008456         1.208133
 H        -0.176059         1.215069        -0.235692
 H        -0.819677        -0.370278        -0.450537
 H         1.166187        -2.130877         0.707478
 H         1.917627        -2.120487        -0.922059
 H         4.948291        -2.059260         0.796450
 H         4.784092         0.405054         0.187268
 H         3.535408         1.417576        -1.779810
 H         3.709896        -0.126422        -2.265052
 H         2.539577         0.830073         1.891182
