19
Iteration:  2878charge 0 multiplicity 1
 C         0.123196         0.117050         0.410878
 C         1.497946        -0.071371        -0.151387
 C         2.024091        -1.588252        -0.108109
 C         3.174586        -1.086400         0.677667
 O         4.062516        -1.827913         1.470265
 C         3.655508         0.133083        -0.117150
 C         3.171667         0.275448        -1.605990
 O         1.801772         0.448556        -1.459874
 C         2.643773         0.252758         0.890794
 H        -0.056022        -0.309500         1.371131
 H        -0.230687         1.116220         0.414011
 H        -0.525335        -0.602251        -0.228112
 H         1.380896        -2.253218         0.514162
 H         2.237470        -1.957411        -1.197708
 H         3.545022        -2.409678         2.047214
 H         4.774572         0.326764         0.100696
 H         3.617985         1.176947        -2.200532
 H         3.499415        -0.563092        -2.308016
 H         2.581083         0.916105         1.724447
