19
Iteration:  1941
 C         0.043100         0.169491         0.110385
 C         1.421083        -0.127594        -0.018890
 C         1.923008        -1.611583         0.034066
 C         3.240787        -1.090488         0.659072
 O         4.203160        -1.772298         1.403549
 C         3.803719         0.039167        -0.128529
 C         3.137328         0.194167        -1.501766
 O         1.759979         0.508418        -1.304557
 C         2.628673         0.347129         0.829891
 H        -0.461734        -0.130194         1.092533
 H        -0.172564         1.230114        -0.240252
 H        -0.588078        -0.351053        -0.623849
 H         1.234624        -2.209782         0.698181
 H         1.835933        -2.102637        -0.994579
 H         4.073349        -2.716559         1.536802
 H         4.791763         0.401513        -0.007791
 H         3.588695         0.885636        -2.197629
 H         3.251049        -0.853718        -2.007970
 H         2.811283         0.789484         1.724086
