19
Iteration:  4032
 C        -0.027030         0.181096         0.065100
 C         1.471743        -0.105637        -0.063057
 C         1.912030        -1.640359         0.147777
 C         3.295835        -1.109665         0.606285
 O         4.105502        -1.876836         1.400658
 C         3.755428         0.116366        -0.143848
 C         3.202125         0.338776        -1.571663
 O         1.749528         0.486437        -1.319953
 C         2.704993         0.234422         0.921237
 H        -0.415666        -0.450530         1.024152
 H        -0.380440         1.231083         0.358262
 H        -0.414096        -0.176127        -0.924244
 H         1.371956        -1.960398         1.058369
 H         1.866194        -2.270354        -0.653873
 H         4.179774        -2.759566         0.988923
 H         4.722149         0.493145         0.039699
 H         3.568751         1.291771        -1.982367
 H         3.419544        -0.529757        -2.165530
 H         2.762943         0.953239         1.793314
