19
Iteration:  3906charge 0 multiplicity 1
 C         0.010508         0.343193         0.140538
 C         1.450055        -0.153126        -0.063417
 C         1.912269        -1.634411         0.041116
 C         3.210582        -1.128842         0.662371
 O         4.224545        -1.890472         1.402834
 C         3.768212         0.087232        -0.069081
 C         3.209625         0.458294        -1.476765
 O         1.700954         0.308311        -1.381295
 C         2.649597         0.206040         0.857160
 H        -0.481287        -0.246735         0.882668
 H        -0.025686         1.446972         0.170411
 H        -0.620647         0.115854        -0.749703
 H         1.296343        -2.073233         0.817907
 H         1.897234        -2.235520        -0.948867
 H         4.557729        -2.573862         0.800060
 H         4.670482         0.537894         0.282467
 H         3.454254         1.428724        -1.806304
 H         3.467863        -0.171018        -2.384335
 H         2.588811         0.690478         1.861407
