19
Iteration:  1847charge 0 multiplicity 1
 C         0.085008         0.322475         0.262975
 C         1.482264        -0.210858        -0.120192
 C         1.868164        -1.712437        -0.043958
 C         3.287220        -1.175022         0.522902
 O         4.108614        -1.769297         1.567119
 C         3.823793         0.056999        -0.160178
 C         3.109965         0.541324        -1.500771
 O         1.755817         0.267632        -1.405644
 C         2.698741         0.171303         0.795742
 H        -0.167818        -0.021591         1.204385
 H        -0.091626         1.304422         0.081728
 H        -0.634253        -0.178162        -0.338929
 H         1.372329        -2.235395         0.760302
 H         1.748985        -2.239357        -0.957370
 H         3.661601        -1.472634         2.383044
 H         4.820480         0.346427         0.055271
 H         3.243194         1.604000        -1.823599
 H         3.437269        -0.056537        -2.300121
 H         2.664685         0.790311         1.636413
