19
Iteration:  1661charge 0 multiplicity 1
 C        -0.002251         0.135245         0.225753
 C         1.437345        -0.113563        -0.134586
 C         1.953708        -1.539269         0.111920
 C         3.225084        -1.010606         0.726158
 O         4.128052        -1.897625         1.399498
 C         3.816199         0.109092        -0.176875
 C         3.206497         0.255247        -1.542374
 O         1.741651         0.391227        -1.406440
 C         2.680186         0.342204         0.809273
 H        -0.114388        -0.419004         1.166138
 H        -0.270384         1.194358         0.185382
 H        -0.587006        -0.459946        -0.484126
 H         1.427672        -2.194830         0.868686
 H         2.112064        -2.214925        -0.767772
 H         3.482159        -2.534106         1.766800
 H         4.832353         0.516379         0.142008
 H         3.635008         1.153837        -1.876336
 H         3.408385        -0.569543        -2.286301
 H         2.502760         1.245076         1.529057
