19
Iteration:  4484charge 0 multiplicity 1
 C         0.009073         0.199859         0.136505
 C         1.386443        -0.086246        -0.061670
 C         1.929345        -1.555981         0.019385
 C         3.228127        -1.040253         0.622794
 O         4.046894        -1.862892         1.370778
 C         3.822831         0.121509        -0.146210
 C         3.176065         0.148714        -1.542908
 O         1.828945         0.496930        -1.309128
 C         2.630382         0.221134         0.973505
 H        -0.399768        -0.165715         1.007353
 H        -0.278919         1.217450         0.271756
 H        -0.478560        -0.259037        -0.768052
 H         1.476459        -2.160011         0.982080
 H         2.013897        -2.421659        -0.754184
 H         4.901088        -1.934691         0.910666
 H         4.895400         0.464448         0.022110
 H         3.770349         0.944859        -2.233318
 H         3.354838        -0.897594        -1.981643
 H         2.679181         0.721200         1.910898
