19
Iteration:  2940
 C         0.069567         0.205530         0.163496
 C         1.475853        -0.189760        -0.152456
 C         1.926259        -1.623162         0.048671
 C         3.236609        -1.135135         0.656992
 O         4.132843        -1.889039         1.375790
 C         3.763348         0.064060        -0.098130
 C         3.145262         0.485445        -1.534870
 O         1.724112         0.336049        -1.442373
 C         2.656116         0.294700         0.950250
 H        -0.284141        -0.287877         1.116827
 H         0.040139         1.365171         0.418105
 H        -0.622189        -0.096947        -0.662294
 H         1.437699        -2.210625         0.786690
 H         1.968602        -2.256475        -0.847150
 H         4.218182        -1.640248         2.304332
 H         4.918223         0.146351         0.003807
 H         3.277449         1.534599        -1.530786
 H         3.523160        -0.099152        -2.345210
 H         2.675234         0.915693         1.770938
