19
Iteration:  3818charge 0 multiplicity 1
 C         0.092214         0.102857         0.435116
 C         1.472991        -0.212271        -0.139996
 C         1.989185        -1.651401        -0.166256
 C         3.269896        -1.128519         0.616461
 O         3.830256        -1.916877         1.623446
 C         3.876421         0.096407        -0.247807
 C         3.188475         0.515329        -1.582807
 O         1.786459         0.498586        -1.360520
 C         2.650444         0.235756         0.767244
 H         0.174225        -0.192682         1.479243
 H        -0.203397         1.200695         0.278150
 H        -0.789450        -0.454833        -0.074985
 H         1.502436        -2.162659         0.626045
 H         2.079012        -2.192029        -1.106973
 H         4.795200        -1.858806         1.565015
 H         4.862531         0.429953        -0.050930
 H         3.543869         1.495150        -1.890905
 H         3.359249        -0.210223        -2.479368
 H         2.465107         0.888005         1.634006
