19
Iteration:  1636charge 0 multiplicity 1
 C        -0.079065         0.013926         0.172393
 C         1.494240        -0.058255        -0.015184
 C         1.931460        -1.526286         0.043979
 C         3.268540        -1.153333         0.616742
 O         4.162710        -1.780128         1.462802
 C         3.740986         0.053630        -0.131752
 C         3.119155         0.130126        -1.665941
 O         1.852100         0.590243        -1.369447
 C         2.707254         0.406751         0.913573
 H        -0.370578        -0.508071         1.135985
 H        -0.410995         1.098502         0.141377
 H        -0.402555        -0.758903        -0.563970
 H         1.230597        -2.095994         0.786906
 H         1.890149        -2.086764        -0.950160
 H         3.637302        -2.536762         1.819525
 H         4.736644         0.157660         0.122799
 H         3.797657         0.795185        -2.319220
 H         3.053685        -0.883727        -2.083663
 H         2.562471         1.227401         1.580267
