19
Iteration:  3077
 C         0.048487         0.064300         0.474730
 C         1.469710        -0.112144        -0.157459
 C         2.062064        -1.693085        -0.104702
 C         3.202089        -1.056442         0.646786
 O         3.881380        -1.926177         1.518572
 C         3.816706         0.072181        -0.189376
 C         3.288575         0.443111        -1.590167
 O         1.759779         0.446966        -1.460760
 C         2.615909         0.321601         0.786409
 H         0.092549        -0.513737         1.424338
 H        -0.028951         1.067417         0.803813
 H        -0.840088        -0.140865        -0.193584
 H         1.533132        -2.556936         0.505677
 H         2.389797        -2.139832        -1.111439
 H         4.473977        -1.515526         2.173728
 H         4.735678         0.554540         0.107294
 H         3.592698         1.487797        -1.879397
 H         3.344113        -0.369307        -2.342914
 H         2.537892         1.066474         1.551901
