19
Iteration:  2860charge 0 multiplicity 1
 C         0.047058         0.060851         0.281544
 C         1.481118        -0.099944        -0.104924
 C         1.929501        -1.589269        -0.088389
 C         3.256009        -1.078885         0.673739
 O         4.154100        -1.924095         1.410345
 C         3.797309         0.134573        -0.082370
 C         3.213316         0.224409        -1.516091
 O         1.737499         0.493198        -1.396927
 C         2.563987         0.425596         0.822465
 H         0.070976        -0.251617         1.385652
 H        -0.257732         1.149197         0.253650
 H        -0.764824        -0.438028        -0.326144
 H         1.196186        -2.163771         0.497426
 H         2.142434        -2.030425        -0.991176
 H         3.663908        -2.521689         1.993013
 H         4.750072         0.591328         0.110312
 H         3.695360         0.843102        -2.215557
 H         3.417953        -0.721867        -2.039477
 H         2.505950         1.266355         1.649377
