19
Iteration:  1579charge 0 multiplicity 1
 C         0.079697         0.308077         0.318515
 C         1.460139        -0.217561        -0.119361
 C         1.947951        -1.692590         0.012516
 C         3.206659        -1.081952         0.646305
 O         4.102161        -1.824853         1.493089
 C         3.743573         0.114178        -0.178835
 C         3.234093         0.462116        -1.578491
 O         1.750479         0.193164        -1.466672
 C         2.644563         0.261482         0.821125
 H        -0.026502         0.011158         1.373132
 H         0.028634         1.472717         0.297092
 H        -0.761298        -0.054140        -0.419949
 H         1.204043        -2.209529         0.678258
 H         2.076893        -2.192593        -1.000505
 H         3.916664        -1.824352         2.438114
 H         4.663400         0.699929         0.102858
 H         3.568266         1.531064        -1.962079
 H         3.482742        -0.219097        -2.387823
 H         2.547706         0.784057         1.756670
