19
Iteration:  1912
 C        -0.036589         0.238302         0.141867
 C         1.408445        -0.119232        -0.015075
 C         1.906702        -1.603898         0.197146
 C         3.254824        -1.087677         0.658650
 O         4.207843        -1.903100         1.229821
 C         3.732717         0.122629        -0.111210
 C         3.247761         0.359880        -1.538024
 O         1.850516         0.263833        -1.459515
 C         2.544902         0.350481         0.927681
 H        -0.327111        -0.037194         1.140774
 H        -0.122425         1.292354         0.115005
 H        -0.757503        -0.199070        -0.587622
 H         1.364221        -1.999440         1.004441
 H         1.752947        -2.216943        -0.629978
 H         3.944257        -2.238188         2.116991
 H         4.768781         0.376327         0.090463
 H         3.613746         1.299281        -2.059201
 H         3.672989        -0.400319        -2.113545
 H         2.598508         0.970835         1.821136
