19
Iteration:  1253
 C         0.180151         0.206181         0.468558
 C         1.492392        -0.204340        -0.221235
 C         1.962053        -1.681102        -0.144232
 C         3.175318        -1.148134         0.608842
 O         4.024491        -1.746749         1.551631
 C         3.726255         0.136304        -0.202130
 C         3.232305         0.410074        -1.527226
 O         1.798616         0.276557        -1.425921
 C         2.571617         0.239673         0.744869
 H         0.044908        -0.501877         1.382079
 H         0.060782         1.260507         0.782989
 H        -0.754083         0.348484        -0.149803
 H         1.308061        -2.327467         0.389019
 H         2.200482        -2.204894        -1.014674
 H         3.610769        -1.680364         2.415922
 H         4.621947         0.571163         0.151076
 H         3.558127         1.464949        -1.570459
 H         3.785903        -0.074954        -2.331036
 H         2.453416         0.904937         1.560187
