19
Iteration:  3281
 C        -0.015034         0.033163         0.188863
 C         1.455108        -0.065833        -0.101948
 C         1.996335        -1.553347        -0.025318
 C         3.265242        -1.084874         0.577839
 O         4.072206        -1.924891         1.558497
 C         3.800625         0.129371        -0.132113
 C         3.170452         0.303589        -1.530686
 O         1.742133         0.558704        -1.367926
 C         2.648756         0.211029         0.873694
 H        -0.289507        -0.582513         1.119490
 H        -0.381283         1.030098         0.364368
 H        -0.542191        -0.159646        -0.801092
 H         1.456852        -1.856299         0.856819
 H         1.916069        -2.217161        -0.963465
 H         4.779219        -2.265562         0.983070
 H         4.698842         0.708588         0.268798
 H         3.678564         1.129182        -2.215619
 H         3.163476        -0.563996        -2.279815
 H         2.771194         0.714802         1.788868
