19
Iteration:   882charge 0 multiplicity 1
 C        -0.000336         0.087954        -0.023986
 C         1.404305        -0.110016        -0.077471
 C         1.878391        -1.617728         0.041905
 C         3.238726        -1.085741         0.702896
 O         4.272045        -1.800740         1.332830
 C         3.722870         0.098711        -0.087380
 C         3.117895         0.134919        -1.533029
 O         1.821528         0.573721        -1.301038
 C         2.679381         0.292749         0.960217
 H        -0.308765        -0.600378         0.848629
 H        -0.244729         1.114821         0.435981
 H        -0.748044        -0.043053        -0.908806
 H         1.364537        -2.170547         0.805730
 H         1.991930        -2.163234        -0.897393
 H         3.995031        -1.970291         2.239367
 H         4.764955         0.454621        -0.037227
 H         3.506215         0.999595        -2.176596
 H         3.014533        -0.825228        -2.071339
 H         2.822681         0.984656         1.820731
