19
Iteration:  1152
 C        -0.040128         0.164561         0.191311
 C         1.424564        -0.113091        -0.080013
 C         2.027937        -1.600305         0.076090
 C         3.293168        -1.134962         0.581556
 O         4.147577        -1.858965         1.290900
 C         3.700392         0.132600        -0.039291
 C         3.226609         0.296637        -1.475075
 O         1.811666         0.415615        -1.375436
 C         2.566931         0.288200         0.828609
 H        -0.324933         0.404351         1.212241
 H        -0.376523         1.052785        -0.310224
 H        -0.704604        -0.723152         0.000801
 H         1.478060        -2.220155         0.706189
 H         2.094622        -2.008225        -0.897296
 H         3.704680        -2.164119         2.116769
 H         4.755101         0.386897         0.241283
 H         3.634740         1.144850        -1.918852
 H         3.609404        -0.616709        -1.928711
 H         2.534448         1.184368         1.491353
