19
Iteration:  4394
 C         0.109885         0.250522         0.399266
 C         1.474383        -0.187184        -0.114731
 C         1.955852        -1.597565         0.027115
 C         3.292077        -1.131183         0.525924
 O         3.833315        -1.941422         1.560088
 C         3.805673         0.125160        -0.203889
 C         3.228672         0.539062        -1.545366
 O         1.819150         0.229409        -1.469938
 C         2.657559         0.262169         0.722714
 H         0.107676        -0.226005         1.424316
 H        -0.001944         1.325655         0.512341
 H        -0.765609        -0.082523        -0.156266
 H         1.387419        -2.348485         0.736748
 H         1.946254        -2.421730        -0.779668
 H         4.772851        -1.710270         1.769468
 H         4.597933         0.635223         0.192031
 H         3.287654         1.777510        -1.560307
 H         3.446806         0.026580        -2.541484
 H         2.627268         1.020504         1.586544
