19
Iteration:   774charge 0 multiplicity 1
 C         0.104313         0.189919         0.282810
 C         1.460032        -0.207285        -0.126682
 C         1.957946        -1.678817        -0.012788
 C         3.287766        -1.124935         0.629023
 O         4.113701        -1.833572         1.519510
 C         3.700879         0.120063        -0.141144
 C         3.166700         0.490064        -1.575226
 O         1.766440         0.346747        -1.462783
 C         2.590427         0.251184         0.861073
 H         0.152561         0.114092         1.409581
 H         0.135743         1.258098        -0.103162
 H        -0.697664        -0.389100        -0.285332
 H         1.314318        -2.370137         0.557298
 H         2.003105        -2.165309        -0.965309
 H         3.511602        -1.914009         2.287919
 H         4.776872         0.332861         0.039320
 H         3.572533         1.477447        -1.914544
 H         3.565331        -0.119764        -2.397550
 H         2.508877         0.828726         1.822534
