19
Iteration:   393
 C        -0.091354         0.071085         0.101692
 C         1.417858        -0.174596        -0.073733
 C         1.969996        -1.677203         0.073065
 C         3.289303        -1.071794         0.638264
 O         4.085426        -1.790685         1.569739
 C         3.814878         0.115569        -0.191090
 C         3.219226         0.358374        -1.562911
 O         1.801520         0.514597        -1.278387
 C         2.671771         0.240153         0.769117
 H        -0.522128        -0.457560         0.989251
 H        -0.222260         1.205408         0.169657
 H        -0.637980        -0.327356        -0.841963
 H         1.346870        -2.177736         0.742318
 H         2.048309        -2.227678        -0.849680
 H         4.071382        -2.754114         1.382025
 H         4.726072         0.662726        -0.057011
 H         3.535644         1.326792        -2.060409
 H         3.389971        -0.454850        -2.296265
 H         2.717977         1.040427         1.486840
