19
Iteration:  1448charge 0 multiplicity 1
 C         0.089881         0.124621         0.295825
 C         1.459665        -0.113358        -0.123315
 C         1.957841        -1.641449        -0.003005
 C         3.190962        -1.111911         0.638130
 O         4.049127        -1.836078         1.494474
 C         3.782157         0.039172        -0.222902
 C         3.258716         0.278736        -1.598915
 O         1.808664         0.457546        -1.397844
 C         2.610919         0.336754         0.836644
 H        -0.040194        -0.244266         1.271674
 H        -0.270884         1.114109         0.481118
 H        -0.692628        -0.523546        -0.139474
 H         1.302947        -2.289726         0.679837
 H         2.001242        -2.091185        -1.043630
 H         3.643084        -1.544765         2.317258
 H         4.714697         0.488585         0.099890
 H         3.571706         1.258276        -1.953011
 H         3.497838        -0.470099        -2.353374
 H         2.492204         1.157373         1.584389
