19
Iteration:  3489
 C         0.062124         0.154143         0.234516
 C         1.494025        -0.192656        -0.069996
 C         1.892500        -1.687035         0.064474
 C         3.215398        -1.119771         0.553893
 O         3.953695        -1.872176         1.469614
 C         3.787920         0.102402        -0.174714
 C         3.223853         0.611107        -1.511207
 O         1.782963         0.269620        -1.363978
 C         2.683418         0.275850         0.824285
 H        -0.131516        -0.055319         1.287213
 H        -0.074899         1.154561        -0.044014
 H        -0.693400        -0.308987        -0.410395
 H         1.434357        -2.097524         0.925386
 H         1.942463        -2.312097        -0.911258
 H         4.882118        -1.970384         1.174076
 H         4.765618         0.303746         0.070530
 H         3.489009         1.705589        -1.626761
 H         3.628156         0.211809        -2.449831
 H         2.792506         1.021095         1.609565
