19
Iteration:  4134
 C         0.052479         0.173418         0.278981
 C         1.450263        -0.062524        -0.105172
 C         1.940566        -1.576817        -0.092060
 C         3.211060        -1.137946         0.656148
 O         4.123489        -1.896646         1.614651
 C         3.763410         0.036015        -0.166514
 C         3.196996         0.318655        -1.563484
 O         1.715608         0.490679        -1.414697
 C         2.646885         0.243774         0.829040
 H        -0.173081         0.119818         1.379444
 H        -0.201844         1.310143         0.072573
 H        -0.641643        -0.558137        -0.284827
 H         1.270627        -2.258274         0.455995
 H         1.969580        -2.070275        -1.033727
 H         4.802138        -2.309115         1.044041
 H         4.841041         0.310720         0.051208
 H         3.638857         1.263159        -1.873428
 H         3.489371        -0.279903        -2.403313
 H         2.576058         0.784877         1.724103
