19
Iteration:  4806
 C        -0.007600         0.390342         0.049887
 C         1.418044        -0.130935        -0.020069
 C         1.779188        -1.629292         0.132601
 C         3.220599        -1.136385         0.624466
 O         4.277704        -1.854390         1.232030
 C         3.754696         0.097669        -0.079095
 C         3.212628         0.230075        -1.496729
 O         1.828365         0.322971        -1.369123
 C         2.646330         0.278635         0.952947
 H        -0.560983        -0.041872         0.973762
 H        -0.065091         1.489972         0.209905
 H        -0.663882         0.110087        -0.708151
 H         1.307548        -2.043594         1.059656
 H         1.732182        -2.198758        -0.812270
 H         3.980313        -2.118436         2.126148
 H         4.774786         0.402059         0.170855
 H         3.498081         1.075520        -2.133593
 H         3.517429        -0.656545        -2.043638
 H         2.646318         1.028373         1.742056
