19
Iteration:  3293
 C         0.006767         0.104141         0.154071
 C         1.463652        -0.138913        -0.080546
 C         1.958715        -1.599938         0.010575
 C         3.307908        -1.107022         0.683173
 O         4.084149        -1.930716         1.440875
 C         3.716493         0.163971        -0.129641
 C         3.194232         0.300645        -1.515368
 O         1.768734         0.520657        -1.330755
 C         2.607537         0.310704         0.867416
 H        -0.453081        -0.413625         1.053851
 H        -0.068508         1.173866         0.222881
 H        -0.599149        -0.398298        -0.697234
 H         1.439108        -2.279247         0.637877
 H         1.964008        -2.166199        -0.973645
 H         4.707508        -2.405521         0.867396
 H         4.745402         0.701767         0.078770
 H         3.599111         1.281558        -1.983430
 H         3.476156        -0.696118        -2.060906
 H         2.617451         1.114906         1.592407
