19
Iteration:  4146
 C         0.023313         0.074934         0.264214
 C         1.489139        -0.052780        -0.123331
 C         1.877558        -1.525299        -0.047367
 C         3.245525        -1.147973         0.656622
 O         4.085084        -1.859442         1.536728
 C         3.768264        -0.008780        -0.155079
 C         3.202106         0.281759        -1.545550
 O         1.778861         0.547113        -1.376454
 C         2.659525         0.288652         0.846390
 H        -0.051200        -0.306780         1.265288
 H        -0.455940         1.122477         0.078274
 H        -0.566290        -0.632859        -0.428246
 H         1.232680        -2.034021         0.658385
 H         2.028299        -1.932606        -1.058298
 H         4.571425        -2.490129         0.953115
 H         4.684763         0.449959         0.176241
 H         3.626224         1.201876        -2.044038
 H         3.209833        -0.662290        -2.080706
 H         2.851939         1.112734         1.539324
