19
Iteration:    89
 C         0.003274         0.161784         0.105212
 C         1.453020        -0.157346        -0.080491
 C         1.872709        -1.702505         0.008670
 C         3.274668        -1.118658         0.625228
 O         4.156831        -1.792378         1.567397
 C         3.741361         0.187618        -0.165698
 C         3.202074         0.294607        -1.553759
 O         1.835315         0.511138        -1.318049
 C         2.589271         0.224668         0.834780
 H        -0.401242        -0.171629         1.049760
 H        -0.297934         1.210642         0.005037
 H        -0.565933        -0.377033        -0.566836
 H         1.459707        -2.343226         0.792424
 H         1.701866        -2.298003        -0.939823
 H         4.477449        -2.560517         1.086410
 H         4.732010         0.628625         0.182447
 H         3.599547         1.141716        -2.098494
 H         3.339040        -0.595266        -2.180259
 H         2.590084         0.941982         1.768025
