19
Iteration:   494
 C         0.079928         0.227690         0.289525
 C         1.466862        -0.209802        -0.142323
 C         1.936597        -1.709454         0.034808
 C         3.224770        -1.161014         0.651134
 O         4.069741        -1.926972         1.612165
 C         3.745139         0.168759        -0.196037
 C         3.155743         0.625076        -1.551603
 O         1.785308         0.220722        -1.537860
 C         2.706769         0.256130         0.765319
 H        -0.223153        -0.282604         1.283452
 H         0.101977         1.384127         0.479160
 H        -0.587285         0.039756        -0.553528
 H         1.309323        -2.289393         0.582343
 H         2.044410        -2.153574        -0.931804
 H         3.971992        -1.329214         2.369676
 H         4.777878         0.421020         0.082525
 H         3.202023         1.699292        -1.520231
 H         3.626342         0.241954        -2.431502
 H         2.449158         0.931436         1.600978
