19
Iteration:  3082charge 0 multiplicity 1
 C         0.047090         0.085284         0.483616
 C         1.449270        -0.085897        -0.174151
 C         2.058324        -1.674668        -0.110789
 C         3.246781        -1.084287         0.646923
 O         3.903315        -1.943771         1.502382
 C         3.819653         0.063693        -0.153987
 C         3.295193         0.435284        -1.545586
 O         1.732919         0.430247        -1.495965
 C         2.594953         0.335279         0.780866
 H        -0.170681        -0.531264         1.374288
 H         0.014514         1.166330         0.872434
 H        -0.694612        -0.269102        -0.202087
 H         1.681906        -2.500214         0.409480
 H         2.300850        -2.087916        -1.053391
 H         4.485430        -1.444157         2.108738
 H         4.807134         0.611858         0.134431
 H         3.594014         1.407660        -1.873746
 H         3.277512        -0.473411        -2.146857
 H         2.520856         1.185898         1.508980
