19
Iteration:    47charge 0 multiplicity 1
 C         0.093422         0.203213         0.378638
 C         1.429323        -0.216727        -0.057941
 C         1.951433        -1.761019        -0.099153
 C         3.225135        -1.122495         0.600702
 O         3.907798        -1.790643         1.647534
 C         3.793495         0.060987        -0.238549
 C         3.247534         0.554134        -1.514207
 O         1.846235         0.244266        -1.464664
 C         2.601804         0.338376         0.722330
 H        -0.135951        -0.310729         1.354918
 H         0.037074         1.345661         0.702246
 H        -0.675516        -0.149686        -0.257008
 H         1.406218        -2.425326         0.539049
 H         2.156887        -2.054633        -1.090813
 H         4.725616        -2.098971         1.201597
 H         4.755987         0.553069         0.127264
 H         3.516120         1.636037        -1.730085
 H         3.684746         0.051854        -2.391364
 H         2.491117         1.256950         1.485074
