19
Iteration:   886
 C        -0.019265         0.092493         0.022128
 C         1.442104        -0.126967        -0.088003
 C         1.900889        -1.587757         0.009163
 C         3.234438        -1.105857         0.707883
 O         4.269885        -1.783921         1.328137
 C         3.737544         0.097113        -0.072772
 C         3.120194         0.151089        -1.530513
 O         1.809740         0.557045        -1.323603
 C         2.674585         0.301177         0.971276
 H        -0.346437        -0.603626         0.836498
 H        -0.269654         1.119236         0.359723
 H        -0.704193        -0.026743        -0.770036
 H         1.267524        -2.094994         0.768654
 H         1.817179        -2.252737        -0.860771
 H         3.920430        -1.954537         2.238758
 H         4.749152         0.383156         0.026888
 H         3.564417         0.868616        -2.248072
 H         3.110722        -0.791672        -2.134577
 H         2.683653         0.888403         1.845579
