19
Iteration:   349
 C         0.125450         0.201568         0.391860
 C         1.530837        -0.257975        -0.173913
 C         1.940992        -1.735271        -0.106029
 C         3.114329        -1.038270         0.635853
 O         3.957349        -1.749596         1.593426
 C         3.727736         0.118987        -0.140829
 C         3.267086         0.520168        -1.521578
 O         1.839139         0.210839        -1.448435
 C         2.602258         0.328640         0.752006
 H        -0.065333        -0.525597         1.212460
 H         0.220149         1.244854         0.844021
 H        -0.830605         0.078535        -0.313051
 H         1.431310        -2.428869         0.435002
 H         2.147594        -2.192734        -1.035655
 H         4.633368        -2.275406         1.100622
 H         4.655679         0.427701         0.271344
 H         3.431699         1.617400        -1.750854
 H         3.612704        -0.128710        -2.371355
 H         2.450502         0.896419         1.606843
