19
Iteration:  2836charge 0 multiplicity 1
 C        -0.081204         0.158770         0.146074
 C         1.459659        -0.101100        -0.000212
 C         1.976342        -1.650180         0.114143
 C         3.275239        -1.041260         0.610721
 O         4.140647        -1.854861         1.289246
 C         3.765102         0.105180        -0.160691
 C         3.206388         0.254913        -1.564664
 O         1.827634         0.468342        -1.356634
 C         2.583528         0.276287         0.953198
 H        -0.253767        -0.242651         1.166111
 H        -0.418844         1.200242         0.110504
 H        -0.760461        -0.382282        -0.678331
 H         1.415785        -2.123538         0.937125
 H         2.144287        -2.316146        -0.736317
 H         3.661280        -2.321006         2.000163
 H         4.832781         0.436185         0.157997
 H         3.714468         1.102644        -2.089207
 H         3.498581        -0.510975        -2.322710
 H         2.599246         1.066084         1.712753
