19
Iteration:   682
 C        -0.012251         0.237965         0.265137
 C         1.462244        -0.248158        -0.098576
 C         1.979102        -1.623279        -0.048331
 C         3.240711        -1.032611         0.642799
 O         4.132511        -1.845466         1.420735
 C         3.760710         0.191387        -0.111735
 C         3.249236         0.326670        -1.539472
 O         1.836243         0.291097        -1.420359
 C         2.532017         0.263126         0.883539
 H        -0.462574        -0.298281         1.147848
 H        -0.031132         1.290592         0.606093
 H        -0.712530         0.165305        -0.643961
 H         1.326501        -2.177068         0.543013
 H         2.160472        -2.136321        -0.949716
 H         3.572031        -2.416764         1.992310
 H         4.540727         0.889037         0.296016
 H         3.460993         1.307822        -2.028898
 H         3.546908        -0.391311        -2.237756
 H         2.706121         0.999439         1.711131
