19
Iteration:   677
 C         0.007931         0.269656         0.258023
 C         1.442462        -0.211084        -0.112329
 C         1.979269        -1.639862        -0.059212
 C         3.255060        -1.053799         0.637349
 O         4.130890        -1.838852         1.450288
 C         3.794093         0.177596        -0.116702
 C         3.239101         0.400630        -1.509998
 O         1.800617         0.250736        -1.443695
 C         2.539351         0.238671         0.893790
 H        -0.207398        -0.399172         1.096506
 H         0.110068         1.335809         0.487212
 H        -0.696333         0.111246        -0.514502
 H         1.252066        -2.265785         0.611387
 H         2.150629        -2.169784        -1.077124
 H         3.534200        -2.335174         2.042643
 H         4.558551         0.816342         0.265187
 H         3.292445         1.404511        -1.980930
 H         3.551530        -0.479197        -2.248887
 H         2.610815         0.954467         1.684996
