19
Iteration:  4302charge 0 multiplicity 1
 C         0.012405         0.149312         0.152778
 C         1.526313        -0.092168        -0.013940
 C         1.930622        -1.508030         0.048620
 C         3.241360        -1.056936         0.690718
 O         4.049225        -2.057630         1.328140
 C         3.759791         0.075794        -0.151367
 C         3.216772         0.244428        -1.550878
 O         1.746511         0.456517        -1.319331
 C         2.618973         0.399652         0.909211
 H        -0.307087        -0.233214         1.165033
 H        -0.129700         1.135697        -0.346855
 H        -0.375529        -0.578924        -0.599191
 H         1.280100        -1.949519         0.703678
 H         1.957841        -2.211793        -0.786441
 H         4.871225        -1.621032         1.575863
 H         4.803634         0.469787         0.189612
 H         3.689606         1.144264        -1.959746
 H         3.334830        -0.612535        -2.210025
 H         2.603285         1.276403         1.476610
