19
Iteration:   648charge 0 multiplicity 1
 C         0.098046         0.252092         0.294660
 C         1.452701        -0.270157        -0.113716
 C         1.931739        -1.783033        -0.015520
 C         3.221357        -1.160692         0.610915
 O         4.080907        -1.733424         1.503788
 C         3.761295         0.020134        -0.205150
 C         3.190122         0.608735        -1.483104
 O         1.818375         0.303087        -1.493286
 C         2.602562         0.223676         0.816067
 H        -0.091853         0.076129         1.391610
 H         0.208368         1.281918        -0.089768
 H        -0.664080        -0.322322        -0.252211
 H         1.213177        -2.142347         0.666674
 H         2.095671        -2.410554        -0.892227
 H         3.536076        -1.832596         2.325034
 H         4.718307         0.448444         0.208532
 H         3.291478         1.726143        -1.419406
 H         3.710550         0.285951        -2.373198
 H         2.643809         0.826190         1.773348
