19
Iteration:  1342charge 0 multiplicity 1
 C        -0.056212         0.193108         0.026385
 C         1.422920        -0.086815        -0.095430
 C         1.875242        -1.566925         0.113413
 C         3.270059        -1.058992         0.677951
 O         4.277121        -1.888192         1.230073
 C         3.773300         0.128529        -0.009807
 C         3.209882         0.135157        -1.493979
 O         1.784070         0.423484        -1.347588
 C         2.591582         0.388946         0.996553
 H        -0.178369        -0.111450         1.134691
 H        -0.470883         1.194435        -0.281263
 H        -0.565281        -0.549936        -0.678729
 H         1.389574        -2.062027         0.926476
 H         1.868915        -2.201848        -0.735109
 H         3.826055        -2.580075         1.733036
 H         4.765528         0.487471         0.256485
 H         3.431521         0.933120        -2.244143
 H         3.447090        -0.877325        -1.972491
 H         2.615543         1.363485         1.526365
