19
Iteration:   575charge 0 multiplicity 1
 C        -0.079213         0.111097         0.151246
 C         1.467039        -0.125769        -0.038928
 C         2.037370        -1.635209        -0.031275
 C         3.237068        -1.064132         0.679865
 O         4.187590        -1.898555         1.333197
 C         3.730015         0.170792        -0.072165
 C         3.216394         0.170520        -1.431323
 O         1.822603         0.476463        -1.363275
 C         2.536366         0.474247         0.837608
 H        -0.407201        -0.080114         1.159759
 H        -0.055782         1.161613        -0.035402
 H        -0.719216        -0.503268        -0.596555
 H         1.491258        -2.241407         0.767564
 H         2.158951        -2.149715        -0.988236
 H         3.708901        -2.691985         1.645959
 H         4.681174         0.717845         0.179559
 H         3.692987         0.803889        -2.195085
 H         3.260118        -0.906525        -1.944311
 H         2.433698         1.183960         1.714784
