19
Iteration:  1816
 C         0.022555         0.152777         0.329219
 C         1.474618        -0.128015        -0.152068
 C         2.032054        -1.716140        -0.026566
 C         3.179053        -1.097086         0.719423
 O         4.115293        -1.767862         1.436647
 C         3.751162         0.019103        -0.133999
 C         3.192630         0.280862        -1.611581
 O         1.785557         0.566062        -1.422512
 C         2.625227         0.282906         0.854151
 H        -0.242796        -0.167261         1.292757
 H        -0.318829         1.166184         0.340119
 H        -0.598121        -0.419883        -0.375559
 H         1.308531        -2.263683         0.654889
 H         2.252423        -2.290170        -0.963493
 H         3.672007        -2.269091         2.147224
 H         4.734327         0.294756         0.173928
 H         3.672116         1.016455        -2.224103
 H         3.295251        -0.703459        -2.174470
 H         2.629613         1.093557         1.522555
