19
Iteration:  3353charge 0 multiplicity 1
 C         0.038276         0.275179         0.252045
 C         1.435425        -0.190587        -0.105833
 C         1.851874        -1.743769         0.059445
 C         3.262851        -1.180201         0.535261
 O         4.093979        -1.845803         1.487856
 C         3.731715         0.141475        -0.104821
 C         3.277308         0.642582        -1.509312
 O         1.818087         0.258130        -1.410011
 C         2.580151         0.174640         0.796903
 H        -0.022804         0.415048         1.311447
 H        -0.207453         1.305322        -0.197314
 H        -0.649015        -0.276942        -0.312864
 H         1.422969        -2.075676         1.043290
 H         1.795395        -2.394590        -0.723871
 H         4.896409        -2.077116         1.004453
 H         4.642487         0.509532         0.181252
 H         3.221897         1.706186        -1.712018
 H         3.831538         0.057507        -2.358921
 H         2.483082         0.541556         1.801155
