19
Iteration:  2493
 C         0.012244         0.231286         0.306404
 C         1.483628        -0.205727        -0.074536
 C         2.004362        -1.707245         0.002858
 C         3.202872        -1.073658         0.647956
 O         4.103960        -1.781371         1.515691
 C         3.830819         0.018511        -0.225994
 C         3.160813         0.455865        -1.546816
 O         1.747001         0.361804        -1.439589
 C         2.647636         0.220731         0.789245
 H        -0.444748        -0.105417         1.302491
 H         0.116818         1.393033         0.248195
 H        -0.557365         0.124634        -0.579267
 H         1.439443        -2.216044         0.733269
 H         2.075352        -2.379576        -0.891985
 H         3.739495        -2.502373         2.067759
 H         4.616622         0.555195         0.207025
 H         3.443553         1.518091        -1.742918
 H         3.354004        -0.119497        -2.513470
 H         2.637826         0.913986         1.526002
