19
Iteration:  3856charge 0 multiplicity 1
 C         0.035447         0.106735         0.193609
 C         1.506916        -0.092424        -0.117414
 C         1.929918        -1.564338        -0.032385
 C         3.181341        -1.049199         0.628934
 O         4.085249        -1.914726         1.412861
 C         3.787880         0.100096        -0.108028
 C         3.154400         0.268983        -1.478643
 O         1.791105         0.495024        -1.331079
 C         2.652412         0.304326         0.940991
 H        -0.285067        -0.362105         1.229197
 H        -0.166142         1.186862         0.134931
 H        -0.608719        -0.497523        -0.461270
 H         1.207547        -2.130886         0.649789
 H         1.919537        -2.106358        -0.986457
 H         4.684399        -2.299790         0.739802
 H         4.937863         0.255925        -0.029330
 H         3.603274         1.131438        -2.157639
 H         3.367872        -0.524138        -2.174519
 H         2.478175         0.929024         1.797795
