19
Iteration:  2111charge 0 multiplicity 1
 C         0.002840         0.089028         0.182913
 C         1.458981        -0.127597        -0.117098
 C         1.937281        -1.587333         0.123236
 C         3.231191        -1.078242         0.688195
 O         4.091298        -1.930525         1.398271
 C         3.731806         0.089909        -0.132148
 C         3.239023         0.280716        -1.602124
 O         1.800267         0.503560        -1.374842
 C         2.648887         0.414631         0.906714
 H        -0.402958        -0.243927         1.156940
 H        -0.331555         1.153600         0.071306
 H        -0.558419        -0.486320        -0.506236
 H         1.408041        -2.076843         0.931348
 H         2.059387        -2.243953        -0.655771
 H         4.330595        -2.628674         0.766181
 H         4.650585         0.502444         0.146324
 H         3.656450         1.207508        -2.149627
 H         3.380943        -0.612403        -2.159908
 H         2.684032         1.043699         1.798420
