19
Iteration:   737
 C        -0.094569         0.076620         0.043559
 C         1.428273        -0.101837         0.044620
 C         1.925422        -1.594126         0.109528
 C         3.279262        -1.099928         0.618084
 O         4.237021        -1.852626         1.403945
 C         3.749999         0.042749        -0.195789
 C         3.202155         0.254800        -1.596101
 O         1.819316         0.576685        -1.332643
 C         2.606666         0.317420         0.931510
 H        -0.570128        -0.548710         0.793003
 H        -0.561120         1.027455         0.267737
 H        -0.519077        -0.360713        -0.933900
 H         1.385518        -2.173110         0.796496
 H         1.991440        -2.049415        -0.873027
 H         3.785622        -2.099283         2.251809
 H         4.782241         0.246300         0.033894
 H         3.720589         1.074849        -2.135160
 H         3.357998        -0.696880        -2.180294
 H         2.709314         1.006781         1.741935
