19
Iteration:   896
 C        -0.069947         0.120111         0.198463
 C         1.502805        -0.102964        -0.116623
 C         1.948869        -1.580162        -0.019094
 C         3.225535        -1.112188         0.643750
 O         4.237948        -1.763627         1.355995
 C         3.756851         0.080541        -0.098053
 C         3.197438         0.208831        -1.536538
 O         1.767123         0.495129        -1.369637
 C         2.609971         0.271000         0.927660
 H        -0.595432        -0.528104         0.992349
 H        -0.266715         1.225514         0.336595
 H        -0.414825        -0.204122        -0.800049
 H         1.230578        -1.861653         0.733464
 H         1.846213        -2.226163        -0.858478
 H         3.929386        -2.117673         2.227187
 H         4.734934         0.258631         0.235741
 H         3.756347         0.915274        -2.202347
 H         3.360697        -0.833249        -1.885987
 H         2.429441         0.806158         1.806217
