19
Iteration:   561
 C        -0.027509         0.160903         0.168163
 C         1.411321        -0.140456        -0.125158
 C         2.001567        -1.556699         0.038217
 C         3.309562        -1.025142         0.702725
 O         4.208444        -1.827972         1.356958
 C         3.706397         0.121297        -0.014116
 C         3.219843         0.122832        -1.506630
 O         1.782076         0.518158        -1.457930
 C         2.535870         0.275793         0.920665
 H        -0.391861        -0.429678         1.089081
 H        -0.343028         1.251402         0.251585
 H        -0.689970        -0.212798        -0.675631
 H         1.457852        -2.146168         0.671958
 H         2.169961        -2.096170        -0.862096
 H         3.886955        -2.755160         1.371099
 H         4.682905         0.477758         0.258126
 H         3.716209         0.872658        -2.051308
 H         3.351524        -0.832597        -1.884955
 H         2.573493         1.087047         1.606889
