19
Iteration:   417
 C         0.028202         0.053725        -0.008768
 C         1.471030        -0.082441        -0.035636
 C         2.021367        -1.621069         0.040252
 C         3.228855        -1.058306         0.669343
 O         4.147752        -1.778421         1.457469
 C         3.694658         0.036001        -0.100633
 C         3.136598         0.241411        -1.545324
 O         1.767676         0.554562        -1.314597
 C         2.637316         0.315093         0.949175
 H        -0.287251        -0.203412         1.068990
 H        -0.306653         1.105784        -0.375312
 H        -0.408268        -0.732075        -0.619747
 H         1.260286        -2.055861         0.528910
 H         2.119985        -2.127677        -0.890739
 H         4.327203        -2.676254         1.089877
 H         4.783963         0.351944        -0.089485
 H         3.585490         1.006752        -2.181959
 H         3.222882        -0.813239        -2.007817
 H         2.581782         0.879052         1.948805
