19
Iteration:  3378
 C         0.083955         0.145441         0.232091
 C         1.487168        -0.162316        -0.103244
 C         1.960141        -1.686593         0.003972
 C         3.232055        -1.124202         0.606235
 O         3.976061        -1.850255         1.511062
 C         3.762410        -0.018860        -0.129325
 C         3.136251         0.601589        -1.486783
 O         1.772790         0.309886        -1.446033
 C         2.677330         0.302106         0.853757
 H        -0.022645         0.096670         1.330705
 H        -0.005807         1.206313         0.107223
 H        -0.596188        -0.199939        -0.524199
 H         1.498593        -2.194198         0.897450
 H         2.056552        -2.274217        -0.994989
 H         4.777082        -2.172778         1.066329
 H         4.907495         0.204056         0.003359
 H         3.186900         1.720910        -1.387094
 H         3.512690         0.189376        -2.444236
 H         2.763636         1.124387         1.553784
