19
Iteration:  2706
 C         0.068980        -0.001521         0.172018
 C         1.530547        -0.076016        -0.088684
 C         1.969255        -1.541455         0.021358
 C         3.252149        -1.142279         0.624518
 O         4.189587        -1.778099         1.486828
 C         3.683860        -0.034950        -0.167295
 C         3.107171         0.206293        -1.604188
 O         1.754220         0.613822        -1.320663
 C         2.648004         0.306023         0.855762
 H        -0.293915        -0.136742         1.205627
 H        -0.171680         1.054214        -0.012809
 H        -0.610709        -0.502540        -0.659993
 H         1.125334        -2.021391         0.603572
 H         2.020168        -2.014786        -0.953092
 H         3.823467        -2.234402         2.274199
 H         4.623465         0.436274         0.010481
 H         3.561978         1.028911        -2.049865
 H         3.088761        -0.765195        -2.067312
 H         2.762321         0.950628         1.597055
