19
Iteration:  4670charge 0 multiplicity 1
 C         0.025739         0.290940         0.269245
 C         1.476120        -0.162381        -0.100199
 C         1.968497        -1.700291         0.067861
 C         3.200261        -1.126948         0.670636
 O         4.071568        -1.966171         1.450825
 C         3.764253         0.090011        -0.178241
 C         3.184190         0.385958        -1.594860
 O         1.784123         0.426228        -1.434955
 C         2.644204         0.296417         0.847827
 H        -0.290249        -0.232492         1.151208
 H         0.034525         1.364278         0.486392
 H        -0.479983        -0.072729        -0.728347
 H         1.288617        -2.336398         0.702559
 H         2.116040        -2.106372        -0.892155
 H         4.325942        -1.484737         2.248889
 H         4.751145         0.405550         0.073826
 H         3.530827         1.310798        -1.983472
 H         3.518044        -0.374852        -2.388655
 H         2.493667         1.023676         1.652083
