19
Iteration:  3535
 C        -0.011149         0.379262         0.217512
 C         1.412717        -0.197821        -0.071254
 C         1.931090        -1.662498         0.050554
 C         3.259871        -1.126972         0.633484
 O         4.158094        -1.918854         1.315919
 C         3.699971         0.103164        -0.067133
 C         3.218055         0.489366        -1.391476
 O         1.836818         0.154118        -1.438495
 C         2.550487         0.316540         0.873288
 H        -0.143789         0.263712         1.248595
 H        -0.153312         1.332569        -0.280467
 H        -0.842872        -0.120301        -0.297029
 H         1.330467        -2.203722         0.792000
 H         2.022102        -2.128655        -1.060590
 H         5.034274        -1.858725         0.888857
 H         4.696414         0.479968         0.255974
 H         3.453892         1.580203        -1.679141
 H         3.716412         0.086066        -2.250477
 H         2.374776         0.924877         1.771773
