19
Iteration:  4242
 C         0.215715         0.334350         0.299206
 C         1.437633        -0.223061        -0.117941
 C         1.846771        -1.771617         0.003829
 C         3.227136        -1.216595         0.473843
 O         4.019229        -1.738509         1.524176
 C         3.676008         0.088751        -0.141339
 C         3.258805         0.520667        -1.450121
 O         1.818853         0.289316        -1.463756
 C         2.587329         0.224889         0.818701
 H         0.013721         0.079483         1.390378
 H         0.101976         1.515338         0.423608
 H        -0.622078        -0.223755        -0.275716
 H         1.278111        -2.107042         0.938154
 H         1.783447        -2.329808        -0.913781
 H         4.852391        -2.087481         1.169630
 H         4.663899         0.419302         0.125071
 H         3.355209         1.574794        -1.617056
 H         3.671542        -0.167338        -2.258685
 H         2.635117         0.768803         1.778614
