19
Iteration:  3556
 C         0.052881         0.282963         0.137370
 C         1.438150        -0.155227        -0.023755
 C         1.925238        -1.704001         0.042357
 C         3.177452        -1.118678         0.647834
 O         4.152810        -1.864839         1.319652
 C         3.697452         0.141030        -0.077215
 C         3.249813         0.353767        -1.495647
 O         1.758039         0.362811        -1.346592
 C         2.594566         0.238743         0.963704
 H        -0.439195         0.061810         1.047919
 H         0.112670         1.320881        -0.212550
 H        -0.550785        -0.160641        -0.687717
 H         1.458578        -2.344895         0.775859
 H         2.054845        -2.223637        -0.986230
 H         4.918942        -1.699406         0.753927
 H         4.671991         0.362330         0.325477
 H         3.441054         1.310015        -2.033526
 H         3.625489        -0.302337        -2.274611
 H         2.641275         0.989123         1.762602
