19
Iteration:  4780
 C        -0.014604         0.246523         0.069446
 C         1.448478        -0.037532         0.009217
 C         1.872223        -1.554755         0.124078
 C         3.191012        -1.095642         0.666835
 O         4.233500        -1.838551         1.228310
 C         3.759708         0.054059        -0.117208
 C         3.205551         0.086633        -1.491326
 O         1.853305         0.473791        -1.338413
 C         2.608378         0.327613         0.921561
 H        -0.571001        -0.217051         0.910622
 H        -0.299098         1.300839         0.087805
 H        -0.738050        -0.221147        -0.688692
 H         1.372643        -2.020792         0.962145
 H         1.863912        -2.048160        -0.754026
 H         3.792781        -2.539576         1.756920
 H         4.828573         0.302692         0.092986
 H         3.611412         0.765486        -2.245930
 H         3.327998        -0.959786        -2.030435
 H         2.724928         0.911227         1.843345
