19
Iteration:  1840
 C         0.095666         0.259133         0.248987
 C         1.419535        -0.206660        -0.142573
 C         1.874516        -1.666114        -0.043441
 C         3.326126        -1.169349         0.543962
 O         4.147054        -1.780719         1.591974
 C         3.780964         0.032995        -0.191828
 C         3.113705         0.473525        -1.529761
 O         1.768090         0.359655        -1.378796
 C         2.667878         0.179670         0.774370
 H        -0.166366         0.107769         1.350694
 H        -0.112425         1.424176         0.263278
 H        -0.710399        -0.255488        -0.366617
 H         1.402421        -2.274562         0.821040
 H         1.835603        -2.253962        -1.049047
 H         3.583457        -1.586790         2.379475
 H         4.752969         0.385954         0.159530
 H         3.505491         1.457226        -1.784338
 H         3.490039        -0.182993        -2.443479
 H         2.583854         0.820178         1.703430
