19
Iteration:  2651charge 0 multiplicity 1
 C         0.060225         0.250779         0.262373
 C         1.474975        -0.114024        -0.076942
 C         1.948214        -1.634334         0.079598
 C         3.243549        -1.095386         0.701709
 O         4.175717        -1.856125         1.349195
 C         3.755301         0.129435        -0.145447
 C         3.228484         0.381411        -1.539202
 O         1.749777         0.229543        -1.475765
 C         2.522536         0.318332         0.880909
 H        -0.187104        -0.270204         1.188895
 H        -0.140802         1.304754         0.337389
 H        -0.626419        -0.061751        -0.632164
 H         1.308238        -2.287163         0.812353
 H         1.976730        -2.209523        -0.854779
 H         3.763654        -2.282629         2.134956
 H         4.694700         0.476641         0.194970
 H         3.418370         1.362408        -1.923618
 H         3.739931        -0.178033        -2.334924
 H         2.590532         1.081027         1.506681
