19
Iteration:  4074
 C         0.060093         0.337955         0.300901
 C         1.436253        -0.108314        -0.123477
 C         1.865068        -1.647127         0.073788
 C         3.176539        -1.168182         0.602805
 O         4.098841        -1.874502         1.463338
 C         3.728566         0.172157        -0.131666
 C         3.226576         0.577690        -1.504851
 O         1.823759         0.138293        -1.533998
 C         2.640804         0.172077         0.886321
 H        -0.056230        -0.271884         1.291860
 H         0.027303         1.413266         0.372064
 H        -0.746037         0.109039        -0.377895
 H         1.373214        -2.128941         0.895815
 H         1.925823        -2.183784        -0.917006
 H         4.809272        -2.287699         0.948014
 H         4.683491         0.377769         0.184875
 H         3.227314         1.619985        -1.656779
 H         3.763085        -0.046253        -2.259862
 H         2.760819         0.882062         1.766344
