19
Iteration:  1210charge 0 multiplicity 1
 C        -0.052883         0.144306         0.127880
 C         1.416600        -0.164067        -0.040249
 C         1.973451        -1.617091         0.031071
 C         3.291022        -1.057676         0.682633
 O         4.175549        -1.839988         1.407711
 C         3.815310         0.077014        -0.212070
 C         3.233169         0.256648        -1.560609
 O         1.774919         0.449604        -1.279510
 C         2.600092         0.305558         0.867121
 H        -0.645817        -0.485875         0.896607
 H        -0.339622         1.219994         0.254924
 H        -0.557120         0.226121        -0.855804
 H         1.378741        -2.104057         0.847586
 H         1.844272        -2.326422        -0.837167
 H         3.604927        -2.353323         2.001665
 H         4.753949         0.547711        -0.004165
 H         3.518556         1.308819        -1.939358
 H         3.416610        -0.418846        -2.428300
 H         2.648824         1.045950         1.633928
