19
Iteration:  3369
 C         0.074120         0.232154         0.221164
 C         1.481940        -0.236507        -0.120349
 C         1.943721        -1.714396         0.094047
 C         3.208409        -1.136178         0.594469
 O         3.973935        -1.817464         1.458030
 C         3.803497         0.083283        -0.191579
 C         3.148212         0.589412        -1.430555
 O         1.792319         0.305049        -1.465135
 C         2.670117         0.214515         0.861835
 H        -0.122455         0.020624         1.304307
 H         0.098535         1.234026        -0.109050
 H        -0.830095        -0.340290        -0.218449
 H         1.393216        -2.277555         0.873432
 H         1.900485        -2.440694        -0.880452
 H         4.831144        -2.078892         1.092967
 H         4.866403         0.377717         0.241058
 H         3.565579         1.669426        -1.445610
 H         3.490922         0.413153        -2.399059
 H         2.719111         0.975861         1.670631
