19
Iteration:  1597
 C         0.005392         0.217153         0.243420
 C         1.445003        -0.171602        -0.050584
 C         1.965677        -1.675804         0.020355
 C         3.283592        -1.121829         0.631587
 O         4.144851        -1.823159         1.496113
 C         3.758691         0.082883        -0.176547
 C         3.178316         0.276337        -1.594540
 O         1.769915         0.466673        -1.409821
 C         2.607969         0.270509         0.815141
 H        -0.317775        -0.026798         1.251137
 H        -0.179625         1.227786         0.005973
 H        -0.740005        -0.116339        -0.433593
 H         1.576716        -2.364607         0.722706
 H         2.109374        -2.224966        -0.889275
 H         3.758595        -1.734560         2.376499
 H         4.835579         0.269061         0.088378
 H         3.432065         1.202619        -1.996606
 H         3.530104        -0.495033        -2.320999
 H         2.567750         1.183725         1.513672
