19
Iteration:  4013charge 0 multiplicity 1
 C        -0.040398         0.103698         0.172389
 C         1.440858        -0.090393        -0.017216
 C         1.956252        -1.517798        -0.045707
 C         3.319920        -1.141200         0.627872
 O         4.133465        -1.896005         1.529322
 C         3.765590         0.126461        -0.196553
 C         3.156721         0.234014        -1.590406
 O         1.816485         0.599629        -1.327364
 C         2.601825         0.230340         0.905086
 H        -0.488023        -0.101586         1.095025
 H        -0.184926         1.187874         0.250462
 H        -0.501104        -0.393375        -0.687625
 H         1.470562        -2.222047         0.724487
 H         1.878974        -2.178779        -0.990823
 H         4.206314        -2.776586         1.121306
 H         4.754020         0.595953         0.074387
 H         3.491610         1.012677        -2.422301
 H         3.170819        -0.734498        -2.164074
 H         2.738836         0.773086         1.878639
