19
Iteration:  3152
 C        -0.063749         0.219833         0.005461
 C         1.419110        -0.125717        -0.076104
 C         1.863323        -1.537296         0.148968
 C         3.277302        -1.182445         0.651043
 O         4.280815        -1.983138         1.409853
 C         3.731232         0.052427        -0.147224
 C         3.214062         0.461226        -1.500175
 O         1.781082         0.423824        -1.334500
 C         2.563172         0.251561         0.914183
 H        -0.404456        -0.131367         1.018287
 H        -0.311862         1.232219        -0.144113
 H        -0.528734        -0.653265        -0.591904
 H         1.259767        -2.018583         0.936682
 H         1.741471        -2.175706        -0.745300
 H         5.092970        -1.890446         0.875095
 H         4.712829         0.436449         0.150884
 H         3.340063         1.517099        -1.690113
 H         3.480584        -0.242714        -2.282713
 H         2.716778         0.945433         1.685889
