19
Iteration:  1404charge 0 multiplicity 1
 C         0.188060         0.302221         0.266459
 C         1.425246        -0.175569        -0.075438
 C         1.891093        -1.692864         0.007369
 C         3.337256        -1.158801         0.616961
 O         4.064991        -1.802134         1.596739
 C         3.734687         0.056776        -0.222885
 C         3.136820         0.504203        -1.559242
 O         1.793588         0.244027        -1.477825
 C         2.625206         0.273158         0.746051
 H        -0.299285        -0.255025         1.157780
 H         0.254575         1.362925         0.509790
 H        -0.630049        -0.105955        -0.399919
 H         1.398823        -2.398967         0.791507
 H         1.925770        -2.186524        -1.043410
 H         3.488283        -2.072088         2.318311
 H         4.623657         0.504463         0.104195
 H         3.311139         1.570831        -1.509928
 H         3.572471         0.184893        -2.529027
 H         2.702421         0.758476         1.706254
