19
Iteration:  4793charge 0 multiplicity 1
 C        -0.058630         0.316883         0.078452
 C         1.439479        -0.031428        -0.022347
 C         1.849933        -1.577827         0.094374
 C         3.230899        -1.138663         0.571836
 O         4.244130        -1.795767         1.190947
 C         3.733529         0.076429        -0.046578
 C         3.268271         0.091238        -1.458030
 O         1.760276         0.383555        -1.294283
 C         2.665856         0.317761         0.902237
 H        -0.606314        -0.173958         1.004261
 H        -0.117800         1.421684        -0.028702
 H        -0.136877        -0.025564        -0.936614
 H         1.197495        -1.988243         0.898276
 H         1.622902        -2.313566        -0.609438
 H         3.967170        -2.336388         1.955587
 H         4.813893         0.320690         0.318940
 H         3.788523         0.862331        -1.985972
 H         3.311013        -0.962532        -1.893725
 H         2.683843         0.894893         1.851351
