19
Iteration:  1971
 C         0.022950         0.136431         0.318216
 C         1.434365        -0.093911        -0.129618
 C         2.050534        -1.660696        -0.020029
 C         3.283009        -1.109345         0.689476
 O         4.027871        -1.806534         1.626451
 C         3.792793         0.044384        -0.241475
 C         3.184719         0.271985        -1.667434
 O         1.741602         0.568860        -1.395589
 C         2.629279         0.258041         0.794142
 H        -0.091299        -0.199708         1.393322
 H        -0.345342         1.226587         0.369234
 H        -0.570698        -0.502620        -0.316362
 H         1.394454        -2.223861         0.755105
 H         2.274184        -2.149666        -1.043391
 H         3.986040        -2.769907         1.440738
 H         4.673909         0.666677        -0.067062
 H         3.531304         1.159669        -2.139863
 H         3.134913        -0.699323        -2.260181
 H         3.068346         0.893627         1.625999
