19
Iteration:  1914charge 0 multiplicity 1
 C        -0.037106         0.227418         0.127302
 C         1.415018        -0.102726         0.006931
 C         1.919331        -1.615604         0.187005
 C         3.246388        -1.083196         0.654655
 O         4.199495        -1.878856         1.225870
 C         3.725005         0.118377        -0.104378
 C         3.244852         0.349169        -1.546992
 O         1.856256         0.276781        -1.437251
 C         2.558905         0.333134         0.931409
 H        -0.335024        -0.054824         1.093639
 H        -0.162801         1.278088         0.052735
 H        -0.805813        -0.141705        -0.538618
 H         1.319378        -2.014545         1.019990
 H         1.762473        -2.285824        -0.663826
 H         3.915531        -2.281857         2.062298
 H         4.808674         0.341121         0.028448
 H         3.630484         1.253904        -2.072918
 H         3.669556        -0.479639        -2.154816
 H         2.584937         1.046689         1.841661
