19
Iteration:  1139charge 0 multiplicity 1
 C         0.008663         0.234398         0.274128
 C         1.467670        -0.156889        -0.078766
 C         1.988394        -1.713334        -0.093565
 C         3.263940        -1.081723         0.603934
 O         4.133503        -1.877188         1.416463
 C         3.733364         0.148067        -0.109578
 C         3.250544         0.377440        -1.497471
 O         1.759128         0.332379        -1.431720
 C         2.577570         0.336754         0.901955
 H        -0.011402         0.476061         1.290441
 H        -0.334884         0.993943        -0.426714
 H        -0.620913        -0.597113        -0.002670
 H         1.512985        -2.274085         0.667679
 H         2.037830        -2.324524        -0.918886
 H         3.554246        -2.244616         2.099461
 H         4.625922         0.641542         0.199312
 H         3.479011         1.351213        -1.809674
 H         3.536662        -0.271093        -2.270173
 H         2.602466         0.976503         1.768778
