19
Iteration:  3808charge 0 multiplicity 1
 C         0.187061         0.101218         0.395500
 C         1.514897        -0.214029        -0.186661
 C         2.024022        -1.710991        -0.120456
 C         3.238180        -1.154587         0.522198
 O         3.803980        -1.861884         1.609507
 C         3.736393         0.076997        -0.167594
 C         3.172798         0.530928        -1.557042
 O         1.762137         0.517663        -1.376331
 C         2.697338         0.246368         0.776973
 H         0.308626        -0.184219         1.482147
 H         0.162058         1.272749         0.397703
 H        -0.796356        -0.443156         0.123711
 H         1.410719        -2.247421         0.500964
 H         2.090133        -2.319508        -0.999584
 H         4.761731        -1.784313         1.729990
 H         4.727769         0.266796         0.038275
 H         3.317259         1.520306        -1.954047
 H         3.514632        -0.164423        -2.352088
 H         2.725247         0.830183         1.711299
