19
Iteration:  4535
 C         0.202469         0.216445         0.366575
 C         1.472744        -0.170107        -0.173955
 C         2.047095        -1.716036        -0.013923
 C         3.191671        -1.178690         0.604441
 O         3.873249        -1.782983         1.624787
 C         3.776337         0.037466        -0.234891
 C         3.155580         0.548800        -1.556055
 O         1.764487         0.366734        -1.492136
 C         2.689737         0.241405         0.801682
 H         0.039039        -0.249639         1.417208
 H         0.189522         1.340062         0.573244
 H        -0.802760         0.118970        -0.176730
 H         1.403141        -2.252582         0.616683
 H         2.154105        -2.377746        -0.835217
 H         4.155384        -2.672722         1.293208
 H         4.750102         0.256726         0.093783
 H         3.468354         1.544000        -1.460681
 H         3.493643         0.120858        -2.491816
 H         2.652170         0.830504         1.683873
