19
Iteration:  1531charge 0 multiplicity 1
 C        -0.015610         0.315695         0.229952
 C         1.460784        -0.102438        -0.132980
 C         1.893404        -1.727062         0.186426
 C         3.172575        -1.134818         0.603628
 O         4.190327        -1.818192         1.455176
 C         3.751325         0.120559        -0.141579
 C         3.178907         0.526036        -1.576318
 O         1.854562         0.160673        -1.447401
 C         2.648198         0.258985         0.808666
 H        -0.136679        -0.070364         1.266957
 H        -0.128162         1.402782         0.097408
 H        -0.595271        -0.077663        -0.562266
 H         1.278097        -1.939154         0.980920
 H         1.817482        -2.410949        -0.594417
 H         3.805066        -2.621964         1.881101
 H         4.788377         0.216094         0.079245
 H         3.182367         1.624775        -1.765750
 H         3.604578         0.041319        -2.499844
 H         2.739112         1.014515         1.620779
