19
Iteration:  3732
 C         0.035921         0.139539         0.002198
 C         1.474501        -0.130768        -0.056112
 C         1.902608        -1.601157         0.173081
 C         3.226145        -1.107600         0.618264
 O         4.125552        -1.988933         1.223594
 C         3.687867         0.232090        -0.061611
 C         3.209610         0.272063        -1.521481
 O         1.804645         0.454946        -1.260306
 C         2.621251         0.337654         0.999687
 H        -0.524216        -0.222738         0.884055
 H        -0.011500         1.235654         0.338213
 H        -0.354082        -0.153165        -1.032508
 H         1.338972        -1.990297         0.932943
 H         1.906995        -2.300080        -0.651060
 H         4.980447        -2.001388         0.768695
 H         4.701153         0.543992         0.104236
 H         3.483313         1.167683        -2.112208
 H         3.216400        -0.620651        -2.029906
 H         2.623951         0.931508         1.907846
