19
Iteration:   858charge 0 multiplicity 1
 C        -0.106328         0.135608         0.035789
 C         1.424150        -0.138225         0.057605
 C         2.043188        -1.623528         0.075592
 C         3.319373        -1.103512         0.711935
 O         4.214787        -1.869915         1.369928
 C         3.777077         0.006817        -0.109982
 C         3.158163         0.263117        -1.597134
 O         1.766510         0.549405        -1.322784
 C         2.640203         0.334708         0.842656
 H        -0.730713        -0.463056         0.679085
 H        -0.467373         1.167423         0.132209
 H        -0.489397        -0.116139        -1.002308
 H         1.467113        -1.979523         0.962268
 H         2.017067        -2.318462        -0.824034
 H         3.716983        -2.088445         2.182915
 H         4.805510         0.431322         0.043765
 H         3.501380         1.176780        -2.099467
 H         3.040683        -0.591167        -2.271572
 H         2.522178         1.162820         1.615611
