19
Iteration:  1382charge 0 multiplicity 1
 C        -0.018499         0.341546         0.232814
 C         1.463050        -0.129100        -0.160463
 C         1.947447        -1.720890         0.078752
 C         3.213354        -1.094246         0.643889
 O         4.133543        -1.785802         1.357822
 C         3.785947         0.125872        -0.116428
 C         3.281520         0.406509        -1.525779
 O         1.765835         0.197756        -1.447359
 C         2.592174         0.232486         0.920345
 H        -0.302056        -0.160791         1.214515
 H         0.202245         1.401626         0.443667
 H        -0.877436         0.096382        -0.481787
 H         1.299148        -2.167221         0.909836
 H         2.090222        -2.378848        -0.850339
 H         3.745607        -2.175048         2.173482
 H         4.799059         0.264548         0.123454
 H         3.543744         1.422756        -1.754436
 H         3.609399        -0.208111        -2.380581
 H         2.464575         1.110753         1.514993
