19
Iteration:  2947
 C         0.026329         0.247367         0.160628
 C         1.451140        -0.150903        -0.088396
 C         1.948770        -1.658405         0.040311
 C         3.235074        -1.130814         0.656236
 O         4.141733        -1.915390         1.325177
 C         3.761796         0.094175        -0.102163
 C         3.174624         0.455833        -1.446222
 O         1.754372         0.305508        -1.411622
 C         2.631331         0.318190         0.863541
 H        -0.388035        -0.362814         0.998595
 H        -0.009837         1.301223         0.385533
 H        -0.598786        -0.242991        -0.596334
 H         1.305988        -2.131949         0.842907
 H         2.033755        -2.263511        -0.829932
 H         4.320116        -1.662744         2.240234
 H         4.763680         0.281269         0.001339
 H         3.408214         1.530939        -1.722007
 H         3.615124        -0.161060        -2.282747
 H         2.604393         1.106232         1.697366
