19
Iteration:  3839charge 0 multiplicity 1
 C        -0.000915         0.090376         0.341734
 C         1.462073        -0.050415        -0.037135
 C         2.009632        -1.578627        -0.089248
 C         3.281086        -1.142178         0.607392
 O         3.946357        -1.935403         1.521880
 C         3.737232         0.051454        -0.149843
 C         3.248404         0.369176        -1.553395
 O         1.741894         0.498362        -1.424186
 C         2.699578         0.292425         0.849554
 H        -0.116675        -0.272663         1.315615
 H        -0.399616         1.106173         0.148969
 H        -0.640698        -0.528747        -0.320956
 H         1.396733        -2.280614         0.495670
 H         2.219485        -1.918317        -1.130655
 H         4.841219        -2.171666         1.203063
 H         4.619232         0.541477         0.192978
 H         3.492301         1.303567        -1.979277
 H         3.504865        -0.418189        -2.392305
 H         2.958254         0.996753         1.647824
