19
Iteration:  1546
 C         0.103001         0.307605         0.317536
 C         1.457378        -0.246108        -0.084322
 C         1.833524        -1.675781         0.146723
 C         3.213132        -1.105125         0.633252
 O         4.084082        -1.758221         1.401383
 C         3.786246         0.072543        -0.228342
 C         3.263551         0.587983        -1.508536
 O         1.845638         0.067191        -1.518900
 C         2.621500         0.295161         0.767980
 H        -0.257613        -0.087661         1.279508
 H         0.053608         1.455828         0.270478
 H        -0.887955         0.083567        -0.251206
 H         1.334395        -2.197679         1.031359
 H         1.841366        -2.427809        -0.711038
 H         3.573328        -2.287907         2.036460
 H         4.709332         0.569555         0.227487
 H         3.340200         1.773221        -1.461297
 H         3.701809         0.169438        -2.413523
 H         2.525481         0.907201         1.692360
