19
Iteration:  1232charge 0 multiplicity 1
 C         0.097403         0.206420         0.289897
 C         1.465560        -0.172199        -0.102636
 C         2.031575        -1.681937        -0.011196
 C         3.262902        -1.151502         0.618228
 O         4.069820        -1.819846         1.513092
 C         3.785105         0.104960        -0.119008
 C         3.148676         0.439569        -1.583359
 O         1.731492         0.358019        -1.513765
 C         2.606835         0.281422         0.850747
 H        -0.293389        -0.552178         1.055448
 H        -0.037844         1.215625         0.720351
 H        -0.650939         0.406273        -0.482729
 H         1.510815        -2.378299         0.663289
 H         2.041061        -2.207888        -0.966679
 H         3.519972        -1.966265         2.315558
 H         4.726983         0.422847         0.232055
 H         3.405197         1.373091        -2.176054
 H         3.697978        -0.370570        -2.033570
 H         2.625722         0.873873         1.729095
