19
Iteration:  1595
 C         0.014801         0.227119         0.252422
 C         1.430335        -0.177544        -0.056078
 C         1.954713        -1.674473         0.027814
 C         3.283140        -1.121692         0.658446
 O         4.144209        -1.828645         1.494680
 C         3.781267         0.104458        -0.197471
 C         3.189003         0.293086        -1.598726
 O         1.768049         0.447061        -1.422793
 C         2.590964         0.261232         0.818935
 H        -0.340360        -0.035842         1.258510
 H        -0.090115         1.262408         0.020573
 H        -0.738143        -0.130013        -0.385117
 H         1.592502        -2.462331         0.717461
 H         2.070814        -2.187391        -0.926999
 H         3.741946        -1.709936         2.376415
 H         4.800565         0.257903         0.052487
 H         3.416740         1.256789        -1.962355
 H         3.587195        -0.473259        -2.320813
 H         2.576398         1.129383         1.519637
