19
Iteration:   738charge 0 multiplicity 1
 C        -0.093148         0.082650         0.048075
 C         1.424834        -0.096511         0.046508
 C         1.924534        -1.609677         0.107599
 C         3.289996        -1.096852         0.611243
 O         4.230068        -1.850450         1.405114
 C         3.762634         0.038539        -0.190330
 C         3.196288         0.263508        -1.606890
 O         1.819263         0.569874        -1.329959
 C         2.603644         0.316796         0.927906
 H        -0.580502        -0.557811         0.791786
 H        -0.569913         1.061725         0.237181
 H        -0.536279        -0.384825        -0.933358
 H         1.388012        -2.180897         0.781772
 H         2.013028        -2.044269        -0.840911
 H         3.778794        -2.074270         2.253149
 H         4.781390         0.237804         0.043943
 H         3.735507         1.094221        -2.087411
 H         3.328996        -0.680565        -2.136009
 H         2.716641         0.996921         1.725832
