19
Iteration:   504charge 0 multiplicity 1
 C         0.051109         0.288232         0.255254
 C         1.491903        -0.221444        -0.148482
 C         1.975616        -1.688438        -0.007260
 C         3.269537        -1.108931         0.661812
 O         4.052255        -1.852721         1.576516
 C         3.756702         0.048964        -0.267315
 C         3.157627         0.590916        -1.524276
 O         1.793820         0.228266        -1.463659
 C         2.621803         0.237976         0.781205
 H        -0.289158        -0.475497         1.056319
 H        -0.089432         1.357471         0.696070
 H        -0.644435         0.071852        -0.555960
 H         1.579810        -2.182703         0.810220
 H         2.055405        -2.382300        -0.839531
 H         3.713959        -1.710396         2.492778
 H         4.762104         0.425268         0.021502
 H         3.230666         1.691861        -1.457043
 H         3.598226         0.387015        -2.420757
 H         2.796809         0.778986         1.735793
