19
Iteration:   984
 C         0.013704         0.208124         0.229045
 C         1.440252        -0.160570        -0.067153
 C         1.904536        -1.729579         0.080138
 C         3.232485        -1.143361         0.586364
 O         4.122283        -1.762368         1.404816
 C         3.789702         0.021701        -0.157438
 C         3.266602         0.507802        -1.489804
 O         1.783954         0.317213        -1.432650
 C         2.660183         0.279654         0.800927
 H        -0.298704        -0.017568         1.327377
 H        -0.435663         1.242426        -0.027080
 H        -0.658867        -0.514618        -0.302021
 H         1.433279        -2.365477         0.802339
 H         1.896949        -2.214719        -0.856565
 H         3.654011        -1.963604         2.256019
 H         4.783485         0.441055         0.156937
 H         3.414893         1.562604        -1.679049
 H         3.574162         0.059002        -2.446515
 H         2.596020         0.834695         1.786875
