19
Iteration:   721
 C        -0.031949         0.001048         0.079829
 C         1.456982        -0.037522        -0.132210
 C         1.905533        -1.529034         0.043951
 C         3.229401        -1.082566         0.777245
 O         4.241799        -1.835319         1.326724
 C         3.711753         0.089639        -0.069547
 C         3.158380         0.168846        -1.556131
 O         1.806898         0.552545        -1.338468
 C         2.678365         0.305967         0.901607
 H        -0.440608        -0.839288         0.658810
 H        -0.222579         1.048508         0.381770
 H        -0.460682        -0.058446        -0.880219
 H         1.167949        -1.880567         0.877678
 H         1.843187        -2.296915        -0.836327
 H         3.925300        -2.467818         2.002964
 H         4.677682         0.567300         0.153137
 H         3.682706         1.036293        -2.017307
 H         3.162126        -0.893592        -2.020382
 H         2.734445         1.073832         1.696069
