19
Iteration:  1336charge 0 multiplicity 1
 C        -0.101035         0.177004         0.004989
 C         1.430372        -0.077862        -0.098124
 C         1.943861        -1.542770         0.134196
 C         3.254930        -1.014489         0.700761
 O         4.249996        -1.897777         1.235750
 C         3.750217         0.083653        -0.052842
 C         3.161088         0.146571        -1.503118
 O         1.815537         0.433923        -1.331385
 C         2.606769         0.376672         0.969241
 H        -0.270597        -0.075475         0.998010
 H        -0.407709         1.161191        -0.233422
 H        -0.546647        -0.650092        -0.484742
 H         1.452118        -2.069611         1.013691
 H         2.012797        -2.183106        -0.828058
 H         3.794825        -2.615334         1.741550
 H         4.741679         0.527821         0.232839
 H         3.618969         0.908857        -2.145165
 H         3.347084        -0.793683        -1.965844
 H         2.801695         1.183768         1.703926
