19
Iteration:  1850
 C         0.076264         0.327783         0.271791
 C         1.509584        -0.198708        -0.091080
 C         1.884135        -1.723435        -0.034661
 C         3.259281        -1.193116         0.529792
 O         4.085115        -1.762699         1.542552
 C         3.831412         0.084175        -0.170557
 C         3.142982         0.566786        -1.495752
 O         1.736734         0.231738        -1.422602
 C         2.697878         0.169184         0.806938
 H        -0.158776        -0.085798         1.247074
 H        -0.009121         1.422094        -0.023181
 H        -0.648201        -0.188070        -0.408153
 H         1.301213        -2.263119         0.809524
 H         1.746183        -2.309565        -1.015184
 H         3.715337        -1.454565         2.400779
 H         4.864251         0.352868         0.013869
 H         3.137573         1.629532        -1.726923
 H         3.517820        -0.082537        -2.374181
 H         2.711841         0.822306         1.722288
