19
Iteration:  3834
 C        -0.002607         0.096208         0.380397
 C         1.482100        -0.046449        -0.054086
 C         2.014562        -1.602325        -0.082812
 C         3.270592        -1.114583         0.588264
 O         3.921963        -1.948862         1.560091
 C         3.782475         0.055934        -0.185265
 C         3.264378         0.368372        -1.567439
 O         1.736916         0.504556        -1.420108
 C         2.677843         0.255191         0.817203
 H        -0.264860        -0.301295         1.431581
 H        -0.327307         1.116432         0.185946
 H        -0.599344        -0.587001        -0.228547
 H         1.347686        -2.369697         0.422841
 H         2.199633        -1.925530        -1.119057
 H         4.842346        -2.106840         1.291528
 H         4.620017         0.708758         0.224540
 H         3.463673         1.404133        -2.024683
 H         3.539469        -0.198937        -2.408626
 H         2.897356         0.969766         1.601582
