19
Iteration:  2236charge 0 multiplicity 1
 C        -0.077070         0.111777         0.113838
 C         1.407475        -0.083187        -0.081605
 C         1.904670        -1.537190         0.109149
 C         3.326966        -1.040466         0.641998
 O         4.138001        -1.918504         1.346375
 C         3.795067         0.169220        -0.128682
 C         3.211829         0.296529        -1.470102
 O         1.791581         0.397019        -1.348007
 C         2.687475         0.308250         0.959367
 H        -0.522990        -0.201001         1.046710
 H        -0.522584         1.083003        -0.104156
 H        -0.625004        -0.434926        -0.794520
 H         1.254188        -1.977518         0.889662
 H         1.632971        -2.247166        -0.715766
 H         4.367757        -2.651880         0.742716
 H         4.826748         0.385937         0.058686
 H         3.592509         1.041854        -2.200418
 H         3.306222        -0.639052        -2.047324
 H         2.887512         1.042439         1.797785
