19
Iteration:  3291
 C         0.006273         0.081177         0.157666
 C         1.458475        -0.122860        -0.091037
 C         1.966343        -1.583116         0.005697
 C         3.298455        -1.108949         0.671393
 O         4.086128        -1.935209         1.461485
 C         3.734052         0.168813        -0.134427
 C         3.197827         0.293558        -1.520177
 O         1.761579         0.528773        -1.336441
 C         2.609853         0.295526         0.864472
 H        -0.445899        -0.395788         1.070481
 H        -0.098120         1.154571         0.261025
 H        -0.551629        -0.338645        -0.716722
 H         1.440360        -2.265938         0.740489
 H         1.920530        -2.171005        -1.011573
 H         4.715135        -2.383958         0.880263
 H         4.678696         0.710140         0.090845
 H         3.601047         1.272849        -1.957639
 H         3.383798        -0.661074        -2.035910
 H         2.675906         1.046881         1.609899
