19
Iteration:  1621charge 0 multiplicity 1
 C         0.055742         0.036656         0.150423
 C         1.471718        -0.041611        -0.096248
 C         1.912046        -1.586849         0.024089
 C         3.210409        -1.055384         0.711827
 O         4.163619        -1.773270         1.449616
 C         3.803375         0.052415        -0.221893
 C         3.137657         0.112385        -1.549521
 O         1.772978         0.616689        -1.324101
 C         2.655723         0.261765         0.859932
 H        -0.190216        -0.303875         1.140374
 H        -0.418789         1.007238        -0.075774
 H        -0.570558        -0.455708        -0.634077
 H         1.305501        -2.105822         0.725879
 H         1.966167        -2.216969        -0.869280
 H         3.728724        -2.260572         2.183014
 H         4.858444         0.458239        -0.082501
 H         3.519990         0.824304        -2.305962
 H         3.140622        -0.865670        -2.033784
 H         2.862160         0.837558         1.769222
