19
Iteration:  4991charge 0 multiplicity 1
 C         0.075037         0.452417         0.278500
 C         1.513134        -0.191521        -0.149223
 C         1.865156        -1.655239         0.157438
 C         3.221121        -1.135848         0.594305
 O         4.133957        -1.860445         1.442986
 C         3.738367         0.049478        -0.190057
 C         3.234771         0.514833        -1.453649
 O         1.796791         0.086564        -1.492910
 C         2.580490         0.323903         0.784524
 H         0.038249        -0.088247         1.240428
 H         0.375397         1.489076         0.234151
 H        -0.629158         0.080291        -0.399738
 H         1.324844        -2.033869         1.116848
 H         1.719410        -2.317869        -0.750306
 H         3.588075        -2.495048         1.940250
 H         4.758483         0.308311         0.136948
 H         3.237171         1.569042        -1.587289
 H         3.578629         0.036583        -2.422897
 H         2.525384         1.273899         1.386821
