19
Iteration:  1036
 C        -0.109819         0.161119         0.094718
 C         1.411771        -0.096749        -0.081145
 C         2.110372        -1.649415         0.023886
 C         3.287174        -1.057164         0.684324
 O         4.210538        -1.848910         1.289399
 C         3.660782         0.202238        -0.113272
 C         3.208432         0.115763        -1.444729
 O         1.816655         0.472532        -1.320213
 C         2.579644         0.355345         0.924721
 H        -0.728360        -0.445200         0.815271
 H        -0.160793         1.105902         0.607539
 H        -0.694532         0.047927        -0.805499
 H         1.539829        -2.203463         0.840097
 H         2.116471        -2.261203        -0.926074
 H         3.595940        -2.511162         1.697273
 H         4.700581         0.422884         0.154379
 H         3.517272         0.853091        -2.198045
 H         3.256267        -0.911414        -1.820937
 H         2.792854         1.310288         1.433463
