19
Iteration:  1002charge 0 multiplicity 1
 C         0.016770         0.121778         0.132605
 C         1.471206        -0.133730        -0.126611
 C         1.899291        -1.599205         0.045544
 C         3.200264        -1.078908         0.635434
 O         4.264296        -1.828191         1.345384
 C         3.666957         0.110984        -0.090416
 C         3.198929         0.319985        -1.493148
 O         1.778985         0.403425        -1.381184
 C         2.617579         0.253513         0.939043
 H        -0.274654        -0.201991         1.124571
 H        -0.096042         1.171590         0.036203
 H        -0.705630        -0.168349        -0.621067
 H         1.164263        -1.925660         0.848864
 H         1.876290        -2.264618        -0.878627
 H         4.104221        -2.014908         2.305206
 H         4.676471         0.217994         0.116885
 H         3.585896         1.255905        -2.004363
 H         3.576200        -0.490629        -2.131936
 H         2.694977         1.033955         1.629630
