19
Iteration:   391
 C        -0.087350         0.084917         0.111422
 C         1.402658        -0.180068        -0.077598
 C         1.981469        -1.674721         0.071281
 C         3.305466        -1.084108         0.630763
 O         4.083425        -1.794001         1.584375
 C         3.810999         0.108816        -0.200683
 C         3.222829         0.373141        -1.566177
 O         1.800614         0.501613        -1.286892
 C         2.670459         0.256124         0.769865
 H        -0.456925        -0.481367         0.962561
 H        -0.252187         1.156799         0.236180
 H        -0.666674        -0.317045        -0.817601
 H         1.234611        -2.145663         0.773602
 H         2.026525        -2.218100        -0.895349
 H         4.067587        -2.758924         1.387711
 H         4.677574         0.675060        -0.046320
 H         3.554907         1.325603        -2.100188
 H         3.461060        -0.389190        -2.275444
 H         2.676571         0.979367         1.527369
