19
Iteration:   557charge 0 multiplicity 1
 C        -0.048239         0.160900         0.161796
 C         1.481075        -0.094097        -0.136898
 C         1.958813        -1.564024         0.035739
 C         3.296139        -1.015675         0.706290
 O         4.225724        -1.818790         1.379189
 C         3.698352         0.125221        -0.043160
 C         3.212586         0.144034        -1.525470
 O         1.794812         0.491195        -1.448988
 C         2.532559         0.223787         0.938313
 H        -0.371080        -0.467031         0.996125
 H        -0.303802         1.229525         0.361214
 H        -0.736574        -0.139980        -0.584886
 H         1.324466        -2.154935         0.788426
 H         2.265183        -2.166683        -0.892769
 H         3.863103        -2.715688         1.347120
 H         4.666124         0.452640         0.342639
 H         3.632089         1.005070        -2.147484
 H         3.377170        -0.850445        -2.019953
 H         2.527944         1.048430         1.652614
