19
Iteration:  3882
 C        -0.082113         0.271337         0.114123
 C         1.427007        -0.160046        -0.028506
 C         1.932804        -1.679425         0.121370
 C         3.237012        -1.117267         0.561365
 O         4.231255        -1.865740         1.318820
 C         3.650328         0.116014        -0.073154
 C         3.240247         0.309874        -1.478748
 O         1.863831         0.508723        -1.354240
 C         2.577435         0.222098         0.945673
 H        -0.489275        -0.203912         0.883994
 H        -0.115834         1.337551         0.129004
 H        -0.746056        -0.053132        -0.670597
 H         1.423323        -2.162653         1.039031
 H         1.747472        -2.319308        -0.828824
 H         4.591367        -2.590251         0.771208
 H         4.591215         0.425491         0.219194
 H         3.800433         0.999030        -2.080534
 H         3.412906        -0.574531        -2.132219
 H         2.615995         1.058913         1.663068
