19
Iteration:  3628
 C         0.168932         0.074738         0.444891
 C         1.547698        -0.148989        -0.104798
 C         2.043428        -1.653552        -0.224818
 C         3.236739        -1.153300         0.622932
 O         3.862415        -1.772507         1.640145
 C         3.808892         0.057030        -0.185738
 C         3.232382         0.427621        -1.586136
 O         1.640240         0.501195        -1.399426
 C         2.691640         0.288528         0.784623
 H         0.008894        -0.744322         1.241145
 H        -0.112201         1.072979         0.689969
 H        -0.506500        -0.153802        -0.392600
 H         1.282377        -2.307055         0.318472
 H         2.292398        -2.061194        -1.197825
 H         4.046120        -2.685068         1.342625
 H         4.758180         0.291785         0.127923
 H         3.568891         1.340794        -1.989243
 H         3.376018        -0.218033        -2.359734
 H         2.620053         0.860892         1.728832
