19
Iteration:  1178
 C        -0.022637         0.093220         0.045223
 C         1.454915        -0.017191        -0.092830
 C         1.902008        -1.644387         0.089729
 C         3.203785        -1.085087         0.737462
 O         4.274112        -1.851336         1.253953
 C         3.666752         0.130211        -0.087529
 C         3.208730         0.147746        -1.542578
 O         1.793107         0.550138        -1.321149
 C         2.663262         0.346359         0.969070
 H        -0.549994        -0.202941         1.045941
 H        -0.547972         1.073303        -0.219216
 H        -0.366883        -0.768307        -0.625709
 H         1.136990        -1.961091         0.919456
 H         1.765093        -2.395547        -0.842075
 H         3.937186        -2.516200         1.909388
 H         4.689013         0.469293        -0.031650
 H         3.663461         1.122162        -2.029902
 H         3.655660        -0.841739        -1.963137
 H         2.770105         0.953470         1.853860
