19
Iteration:    52charge 0 multiplicity 1
 C         0.074087         0.218848         0.349055
 C         1.442017        -0.179168        -0.108091
 C         1.964459        -1.734811        -0.107388
 C         3.229430        -1.083862         0.642505
 O         3.925174        -1.775886         1.635574
 C         3.782834         0.035364        -0.229412
 C         3.214151         0.509855        -1.530328
 O         1.835588         0.256439        -1.434797
 C         2.610007         0.286275         0.765162
 H        -0.001164        -0.303096         1.322420
 H         0.057873         1.245071         0.641549
 H        -0.729804        -0.181567        -0.368225
 H         1.463941        -2.356162         0.679052
 H         2.234356        -2.016936        -1.172356
 H         4.709941        -2.105198         1.176123
 H         4.686974         0.459069         0.104539
 H         3.503903         1.588519        -1.640395
 H         3.647878         0.126516        -2.491398
 H         2.581378         0.967854         1.528261
