19
Iteration:  4756charge 0 multiplicity 1
 C         0.032500         0.186171         0.264196
 C         1.498051        -0.071441        -0.129767
 C         1.977681        -1.589579         0.058653
 C         3.243091        -1.105154         0.732335
 O         4.112178        -1.978939         1.431383
 C         3.741021         0.066708        -0.148768
 C         3.235208         0.215414        -1.597181
 O         1.735264         0.524384        -1.392053
 C         2.653209         0.382039         0.811926
 H        -0.348966        -0.105736         1.186965
 H        -0.257336         1.216650         0.049353
 H        -0.722857        -0.398987        -0.373797
 H         1.319443        -1.995669         0.788782
 H         2.102551        -2.239409        -0.774988
 H         3.478478        -2.551289         1.927344
 H         4.695184         0.432172         0.054282
 H         3.673044         1.090788        -2.144440
 H         3.297670        -0.648316        -2.356389
 H         2.782210         1.216579         1.484082
