19
Iteration:  4397
 C         0.116452         0.235422         0.415342
 C         1.491797        -0.190424        -0.087771
 C         1.921469        -1.591588         0.025838
 C         3.294120        -1.165870         0.522347
 O         3.828571        -1.918664         1.530080
 C         3.787962         0.136921        -0.184882
 C         3.253961         0.558200        -1.550426
 O         1.826422         0.217026        -1.451443
 C         2.663294         0.285405         0.706160
 H         0.156116        -0.231671         1.298600
 H         0.071448         1.285099         0.306105
 H        -0.734543        -0.158014        -0.178639
 H         1.358738        -2.268167         0.790784
 H         1.833588        -2.405915        -0.702692
 H         4.748616        -1.736993         1.775985
 H         4.650834         0.659954         0.237993
 H         3.249547         1.724043        -1.603358
 H         3.433836        -0.011590        -2.538660
 H         2.538980         0.890604         1.556438
