19
Iteration:  3820charge 0 multiplicity 1
 C         0.073626         0.099577         0.436425
 C         1.473808        -0.194118        -0.137196
 C         1.988052        -1.644510        -0.157813
 C         3.267344        -1.121083         0.622420
 O         3.839629        -1.927996         1.623750
 C         3.900196         0.103334        -0.260534
 C         3.194049         0.498713        -1.603369
 O         1.781400         0.495353        -1.360206
 C         2.640775         0.226428         0.769001
 H         0.091496        -0.144392         1.564238
 H        -0.250944         1.205306         0.313280
 H        -0.743701        -0.489311        -0.152134
 H         1.512496        -2.188487         0.561910
 H         2.061625        -2.144490        -1.093672
 H         4.805573        -1.872723         1.518765
 H         4.832808         0.489620        -0.029460
 H         3.618532         1.498152        -1.781025
 H         3.363008        -0.215945        -2.405360
 H         2.450588         0.911317         1.628098
