19
Iteration:  4979charge 0 multiplicity 1
 C         0.124956         0.367368         0.188020
 C         1.418929        -0.160080        -0.157655
 C         1.847643        -1.646595         0.238170
 C         3.190458        -1.116538         0.707165
 O         4.173478        -1.837740         1.356511
 C         3.771582         0.017933        -0.124647
 C         3.209135         0.471037        -1.539162
 O         1.787945         0.168819        -1.507952
 C         2.649283         0.290218         0.816093
 H        -0.357548         0.074661         1.157273
 H         0.095792         1.425674         0.418913
 H        -0.635893         0.317074        -0.487728
 H         1.147223        -1.945770         1.089568
 H         1.900349        -2.527877        -0.527981
 H         3.700432        -2.496751         1.891007
 H         4.799281         0.151608         0.106999
 H         3.373013         1.529684        -1.487394
 H         3.708749         0.095453        -2.436145
 H         2.489902         1.137169         1.517252
