19
Iteration:  4700
 C         0.177388         0.277060         0.488267
 C         1.491222        -0.212521        -0.207754
 C         1.890606        -1.711268        -0.089333
 C         3.209971        -1.173613         0.543544
 O         3.976550        -1.791575         1.587794
 C         3.805133         0.003811        -0.175877
 C         3.219292         0.468255        -1.541605
 O         1.800879         0.373545        -1.492810
 C         2.621537         0.202050         0.768451
 H         0.224804        -0.039118         1.538465
 H         0.003478         1.390837         0.589383
 H        -0.736632        -0.129498        -0.074886
 H         1.305804        -2.386123         0.461979
 H         1.853660        -2.248018        -1.045985
 H         3.783534        -1.144412         2.291765
 H         4.845332         0.345360         0.051577
 H         3.465110         1.600480        -1.503061
 H         3.489336        -0.151845        -2.488996
 H         2.486571         0.944631         1.588708
