19
Iteration:  3400charge 0 multiplicity 1
 C         0.000863         0.100595         0.297420
 C         1.464533        -0.122035        -0.069131
 C         1.913597        -1.620065        -0.052456
 C         3.251561        -1.122052         0.688699
 O         4.025822        -1.893983         1.592992
 C         3.789562         0.162235        -0.175929
 C         3.198118         0.459501        -1.580120
 O         1.774130         0.391934        -1.450364
 C         2.703893         0.221234         0.811553
 H        -0.123710        -0.396521         1.285794
 H        -0.309643         1.111538         0.449973
 H        -0.508345        -0.059000        -0.628867
 H         1.262258        -2.279287         0.574555
 H         2.125583        -1.887371        -1.156754
 H         4.578535        -2.510711         1.071237
 H         4.822266         0.670825         0.118170
 H         3.594674         1.474705        -1.844102
 H         3.363847        -0.198281        -2.487114
 H         2.666472         0.901327         1.668956
