19
Iteration:   847charge 0 multiplicity 1
 C        -0.064253         0.117822         0.087734
 C         1.433579        -0.154312        -0.075595
 C         1.958044        -1.586237         0.095366
 C         3.309974        -1.083700         0.641913
 O         4.185994        -1.890310         1.452660
 C         3.802820         0.087806        -0.138627
 C         3.117961         0.322570        -1.587806
 O         1.745698         0.466781        -1.378428
 C         2.653567         0.343462         0.881286
 H        -0.386755        -0.379737         0.978826
 H        -0.086861         1.182801         0.298825
 H        -0.559624        -0.261018        -0.842126
 H         1.480155        -2.171298         0.903109
 H         1.948259        -2.265446        -0.803287
 H         3.735322        -2.410816         2.123005
 H         4.840428         0.395276         0.123674
 H         3.564646         1.270430        -1.906686
 H         3.471143        -0.424896        -2.323932
 H         2.690008         1.026876         1.773946
