19
Iteration:  3789charge 0 multiplicity 1
 C         0.206644         0.183444         0.450963
 C         1.518465        -0.149757        -0.096982
 C         1.962644        -1.738091        -0.159411
 C         3.193214        -1.141760         0.609403
 O         3.895847        -1.847449         1.556768
 C         3.790535         0.083226        -0.177889
 C         3.226123         0.474205        -1.531866
 O         1.736069         0.479940        -1.462674
 C         2.607641         0.154999         0.812031
 H         0.019365        -0.432793         1.376134
 H         0.003014         1.261228         0.403966
 H        -0.520514        -0.278564        -0.233581
 H         1.407884        -2.312178         0.571969
 H         2.114534        -2.268118        -1.109799
 H         4.816457        -1.530648         1.503640
 H         4.687022         0.578098         0.043406
 H         3.621270         1.497719        -1.877735
 H         3.408421        -0.045967        -2.408415
 H         2.399478         0.762691         1.716917
