19
Iteration:  1821charge 0 multiplicity 1
 C         0.034268         0.170708         0.325276
 C         1.481661        -0.152642        -0.131764
 C         2.030709        -1.714021        -0.018867
 C         3.191318        -1.106130         0.679642
 O         4.126789        -1.768264         1.477079
 C         3.729306         0.000205        -0.141039
 C         3.238519         0.302626        -1.614353
 O         1.755263         0.561414        -1.423509
 C         2.613568         0.229757         0.835408
 H        -0.341157        -0.179649         1.383864
 H        -0.310858         1.296770         0.225427
 H        -0.725431        -0.339930        -0.343557
 H         1.305560        -2.180474         0.630156
 H         2.151012        -2.273942        -0.953292
 H         3.694416        -2.163470         2.263727
 H         4.740383         0.444046         0.055622
 H         3.623821         1.176285        -2.233690
 H         3.388936        -0.566865        -2.307546
 H         2.675140         1.086280         1.574760
