19
Iteration:  2731charge 0 multiplicity 1
 C        -0.072172         0.135429         0.361837
 C         1.489082        -0.122039        -0.133085
 C         1.991108        -1.701097        -0.021772
 C         3.223803        -1.008837         0.631581
 O         4.099868        -1.806468         1.468702
 C         3.804864         0.058735        -0.191148
 C         3.216095         0.305961        -1.593784
 O         1.802854         0.444383        -1.412728
 C         2.656943         0.278361         0.840160
 H        -0.314783        -0.066406         1.442288
 H        -0.413893         1.238385         0.263837
 H        -0.739174        -0.389152        -0.291254
 H         1.435368        -2.438924         0.686893
 H         2.186895        -2.165122        -1.101444
 H         3.618389        -2.334553         2.142405
 H         4.856597         0.498235        -0.031178
 H         3.604924         1.317086        -1.889989
 H         3.304664        -0.618456        -2.162393
 H         2.449458         1.148052         1.680926
