19
Iteration:   863charge 0 multiplicity 1
 C        -0.110275         0.134151         0.035517
 C         1.450132        -0.109596         0.037957
 C         2.051373        -1.634336         0.101497
 C         3.292752        -1.097831         0.708404
 O         4.230242        -1.863702         1.351355
 C         3.751423         0.012729        -0.157315
 C         3.166192         0.236203        -1.562370
 O         1.766609         0.571331        -1.275926
 C         2.621649         0.317171         0.850947
 H        -0.842871        -0.561482         0.591372
 H        -0.546714         1.184962         0.020608
 H        -0.414061        -0.040942        -1.043627
 H         1.389391        -2.122488         0.824929
 H         2.051886        -2.276169        -0.750485
 H         3.800174        -2.021635         2.210673
 H         4.699127         0.453804         0.071824
 H         3.628956         1.045914        -2.228616
 H         3.124263        -0.671913        -2.215931
 H         2.634614         1.141362         1.510485
