19
Iteration:  2821
 C         0.019476         0.186520         0.087454
 C         1.444758        -0.128902        -0.068580
 C         1.864233        -1.631662         0.128301
 C         3.217735        -1.137639         0.641063
 O         4.252768        -1.833240         1.337808
 C         3.735865         0.110164        -0.142147
 C         3.219238         0.400686        -1.569440
 O         1.750514         0.369585        -1.346085
 C         2.676879         0.284752         0.959448
 H        -0.496146        -0.167250         0.950021
 H        -0.114045         1.287057        -0.040916
 H        -0.425980        -0.265600        -0.815860
 H         1.330096        -2.168024         0.946453
 H         1.604396        -2.275935        -0.819103
 H         3.789579        -2.295060         2.071342
 H         4.734007         0.382951         0.052366
 H         3.393901         1.409330        -2.030020
 H         3.386063        -0.520629        -2.134136
 H         2.757769         0.777238         1.884065
