19
Iteration:   250charge 0 multiplicity 1
 C         0.003107         0.066871         0.127650
 C         1.458620        -0.051456        -0.018914
 C         1.923126        -1.553704         0.084330
 C         3.228073        -1.038388         0.636419
 O         4.085757        -2.034907         1.388823
 C         3.673631         0.213963        -0.037939
 C         3.251322         0.256660        -1.557604
 O         1.830829         0.465279        -1.422572
 C         2.620577         0.345075         0.895049
 H        -0.329838        -0.454419         1.048518
 H        -0.372874         1.081400        -0.033295
 H        -0.294261        -0.669713        -0.748548
 H         1.508493        -2.057154         0.906683
 H         1.832141        -2.224937        -0.805650
 H         4.975485        -1.597248         1.412803
 H         4.689569         0.579881         0.229472
 H         3.565902         0.995422        -2.337423
 H         3.409107        -0.749950        -2.070648
 H         2.587152         1.094734         1.759685
