19
Iteration:  4231charge 0 multiplicity 1
 C         0.125276         0.338942         0.342841
 C         1.494367        -0.210525        -0.158878
 C         1.894735        -1.763003        -0.037286
 C         3.157855        -1.161676         0.586320
 O         4.039763        -1.688261         1.492537
 C         3.735882         0.058779        -0.137199
 C         3.228946         0.479839        -1.489702
 O         1.791553         0.290581        -1.413472
 C         2.613543         0.180364         0.838750
 H        -0.142727        -0.104117         1.340489
 H         0.248884         1.498364         0.179098
 H        -0.742294         0.167392        -0.402382
 H         1.279279        -2.391348         0.683491
 H         1.945848        -2.407000        -0.903097
 H         4.586086        -2.354679         1.051395
 H         4.780087         0.235916         0.105358
 H         3.484207         1.523115        -1.593466
 H         3.757231         0.005248        -2.375273
 H         2.629756         0.864815         1.679541
