19
Iteration:  1012charge 0 multiplicity 1
 C         0.000801         0.162402         0.112987
 C         1.445500        -0.125974        -0.088815
 C         1.949309        -1.548036         0.084650
 C         3.238071        -1.113959         0.752147
 O         4.284285        -1.854412         1.284760
 C         3.717541         0.156617        -0.091873
 C         3.226730         0.225408        -1.525688
 O         1.766107         0.461889        -1.368361
 C         2.531326         0.273558         0.881105
 H        -0.463687        -0.329057         0.926787
 H        -0.179679         1.179007         0.265070
 H        -0.495738        -0.273960        -0.761106
 H         1.316924        -2.176943         0.802644
 H         1.934768        -2.114340        -0.944071
 H         4.048786        -2.078666         2.216106
 H         4.696479         0.402037         0.180219
 H         3.575541         1.051208        -2.209410
 H         3.319707        -0.775588        -2.027352
 H         2.279839         0.793574         1.757398
