19
Iteration:  1084
 C         0.061741         0.152004         0.312997
 C         1.447393        -0.235686        -0.173778
 C         1.945618        -1.635632         0.056938
 C         3.219909        -1.142188         0.611237
 O         4.034274        -1.713934         1.536783
 C         3.831333         0.022970        -0.242575
 C         3.246410         0.548722        -1.521110
 O         1.785824         0.335358        -1.431467
 C         2.646184         0.232449         0.760928
 H        -0.270017        -0.346682         1.230087
 H        -0.075904         1.224628         0.648846
 H        -0.788902        -0.195151        -0.279869
 H         1.395491        -2.176539         0.758044
 H         2.109214        -2.206271        -0.775629
 H         3.701615        -2.587408         1.766719
 H         4.823106         0.217920         0.103765
 H         3.326296         1.585821        -1.604353
 H         3.523396         0.076398        -2.421176
 H         2.496740         0.904367         1.592756
