19
Iteration:  3950charge 0 multiplicity 1
 C         0.106333         0.187944         0.476482
 C         1.457447        -0.100797        -0.188832
 C         1.906980        -1.662368        -0.056298
 C         3.274935        -1.155874         0.514925
 O         3.881337        -1.871626         1.605924
 C         3.850575         0.101349        -0.171033
 C         3.189247         0.568371        -1.484690
 O         1.781419         0.327015        -1.493696
 C         2.658808         0.183934         0.719621
 H         0.154793        -0.306835         1.411734
 H        -0.049212         1.271218         0.404932
 H        -0.723677        -0.358204         0.002743
 H         1.421554        -2.225318         0.761613
 H         1.750392        -2.501696        -0.881412
 H         4.790138        -2.044096         1.317481
 H         4.763184         0.690577         0.216757
 H         3.450880         1.551133        -1.745506
 H         3.830875         0.086906        -2.260324
 H         2.804635         0.824994         1.615471
