19
Iteration:  4155charge 0 multiplicity 1
 C        -0.019028         0.012825         0.226197
 C         1.489762        -0.043281        -0.070086
 C         1.927290        -1.574429        -0.007772
 C         3.206453        -1.107825         0.650813
 O         4.013400        -1.826213         1.435711
 C         3.782143         0.026484        -0.148604
 C         3.185384         0.235036        -1.570793
 O         1.851744         0.593892        -1.334479
 C         2.686339         0.322886         0.871281
 H        -0.129112        -0.377287         1.285572
 H        -0.459683         1.073690         0.378316
 H        -0.491426        -0.704605        -0.538884
 H         1.217645        -2.043073         0.697006
 H         1.876026        -2.150931        -0.864813
 H         4.455405        -2.632009         1.126094
 H         4.802214         0.469383         0.068468
 H         3.702018         0.893144        -2.175044
 H         3.358921        -0.667400        -2.117869
 H         2.865167         1.159989         1.480690
