19
Iteration:  1781charge 0 multiplicity 1
 C        -0.058791         0.045147         0.281269
 C         1.456303        -0.007670        -0.007669
 C         1.954241        -1.482662         0.018044
 C         3.300233        -0.999118         0.658273
 O         4.082495        -1.893719         1.354768
 C         3.788437         0.155332        -0.116257
 C         3.231222         0.138024        -1.581549
 O         1.818363         0.412744        -1.450275
 C         2.620000         0.349349         0.909364
 H        -0.226408        -0.579306         1.079528
 H        -0.382201         0.985357         0.201191
 H        -0.495789        -0.409189        -0.571955
 H         1.443298        -2.066516         0.804481
 H         1.887314        -2.114497        -0.864853
 H         3.541631        -2.622868         1.697016
 H         4.689140         0.665584         0.336821
 H         3.754789         0.842276        -2.281197
 H         3.332282        -0.878084        -1.967020
 H         2.689404         1.252059         1.520823
