19
Iteration:  3854charge 0 multiplicity 1
 C         0.031607         0.102462         0.198939
 C         1.500910        -0.095689        -0.110211
 C         1.943786        -1.552211        -0.048680
 C         3.191369        -1.067117         0.627099
 O         4.070098        -1.918097         1.425579
 C         3.783699         0.093026        -0.109035
 C         3.141396         0.291869        -1.490915
 O         1.790309         0.487619        -1.344079
 C         2.662029         0.314138         0.942578
 H        -0.248716        -0.338728         1.278688
 H        -0.201648         1.224387         0.197191
 H        -0.624251        -0.556483        -0.460934
 H         1.304029        -2.107960         0.584931
 H         1.912058        -2.082299        -0.967679
 H         4.714989        -2.290246         0.798286
 H         4.881357         0.206527        -0.048952
 H         3.672287         1.133249        -2.083470
 H         3.375271        -0.567330        -2.157623
 H         2.529260         0.985843         1.812365
