19
Iteration:  1436charge 0 multiplicity 1
 C         0.030933         0.143298         0.377321
 C         1.501422        -0.175431        -0.100420
 C         1.937047        -1.723359        -0.004799
 C         3.222570        -1.093094         0.613387
 O         3.979436        -1.798111         1.558173
 C         3.802597         0.054452        -0.178840
 C         3.219121         0.410563        -1.581369
 O         1.757783         0.418878        -1.462913
 C         2.710114         0.341999         0.708841
 H        -0.066859        -0.223687         1.338481
 H        -0.007740         1.181976         0.229616
 H        -0.602550        -0.211031        -0.425868
 H         1.355531        -2.425373         0.677311
 H         2.151199        -2.271327        -0.983647
 H         3.686309        -1.806657         2.488327
 H         4.838787         0.197790        -0.037379
 H         3.657033         1.406139        -1.789155
 H         3.460906        -0.229717        -2.390974
 H         2.783505         0.701270         1.720771
