19
Iteration:  2174
 C         0.177724         0.254029         0.498514
 C         1.487065        -0.216683        -0.181727
 C         2.002923        -1.769737        -0.213861
 C         3.231174        -1.189649         0.524720
 O         3.919032        -1.672538         1.733224
 C         3.788723         0.021825        -0.166304
 C         3.197663         0.500305        -1.596367
 O         1.729093         0.442373        -1.418777
 C         2.586085         0.140514         0.745593
 H         0.104671        -0.276388         1.416861
 H         0.182176         1.335655         0.561883
 H        -0.601018        -0.064462        -0.206459
 H         1.379261        -2.377707         0.434353
 H         2.107225        -2.257274        -1.243394
 H         4.669432        -2.269692         1.535261
 H         4.704211         0.444918         0.081926
 H         3.511611         1.486436        -1.789860
 H         3.440163        -0.210775        -2.447562
 H         2.605945         0.738066         1.669109
