19
Iteration:  3963
 C         0.138152         0.132813         0.461668
 C         1.487890        -0.173994        -0.152946
 C         1.883204        -1.654976        -0.095842
 C         3.260871        -1.205687         0.561240
 O         3.916364        -1.848918         1.623564
 C         3.747358         0.113550        -0.189678
 C         3.280895         0.503806        -1.574981
 O         1.789722         0.433975        -1.501982
 C         2.636279         0.222587         0.785755
 H         0.264274         0.035742         1.636068
 H        -0.198973         1.190092         0.585435
 H        -0.681008        -0.482457         0.008426
 H         1.272882        -2.099854         0.667423
 H         1.921473        -2.116928        -1.103861
 H         4.840648        -2.132512         1.449161
 H         4.818004         0.475094         0.139369
 H         3.474584         1.526476        -1.646057
 H         3.413754        -0.162539        -2.465492
 H         2.495462         0.895362         1.602790
