19
Iteration:  4822
 C         0.050428         0.416017         0.216464
 C         1.432900        -0.129844        -0.085380
 C         1.933077        -1.629755         0.185905
 C         3.219272        -1.129093         0.717549
 O         4.195253        -1.926580         1.322284
 C         3.688209         0.074672        -0.187358
 C         3.245409         0.373936        -1.577923
 O         1.786927         0.258591        -1.424268
 C         2.565257         0.284949         0.848217
 H        -0.389144         0.009640         1.076316
 H         0.185326         1.477346         0.096830
 H        -0.593435         0.119451        -0.713568
 H         1.286439        -2.180730         0.872877
 H         1.912667        -2.390183        -0.757186
 H         3.909870        -2.147946         2.220259
 H         4.692826         0.361226         0.185311
 H         3.609400         1.413035        -1.756951
 H         3.653186        -0.262907        -2.404342
 H         2.547380         0.899913         1.762413
