19
Iteration:  2975
 C        -0.057802         0.193485         0.164428
 C         1.384004        -0.179545        -0.027357
 C         1.934882        -1.581882         0.099186
 C         3.297093        -1.035510         0.619186
 O         4.140102        -1.970757         1.199592
 C         3.718300         0.219710        -0.024516
 C         3.298767         0.301625        -1.532421
 O         1.846220         0.342588        -1.416317
 C         2.533294         0.305299         0.977843
 H        -0.271168        -0.255379         1.152951
 H        -0.131341         1.361983         0.168348
 H        -0.822305        -0.180804        -0.586966
 H         1.428356        -2.035931         0.979609
 H         1.882655        -2.213449        -0.881610
 H         4.416556        -1.775540         2.102050
 H         4.831829         0.530288         0.205867
 H         3.577753         1.116625        -2.252556
 H         3.698100        -0.423133        -2.240415
 H         2.448330         0.991330         1.862828
