19
Iteration:  4930
 C        -0.029242         0.236966         0.135750
 C         1.395997        -0.064619        -0.039840
 C         1.967182        -1.593341         0.043417
 C         3.236697        -1.050822         0.664179
 O         4.165150        -1.901114         1.358980
 C         3.791308         0.074416        -0.158770
 C         3.187621         0.114017        -1.529202
 O         1.782726         0.465634        -1.334762
 C         2.711202         0.317238         0.865986
 H        -0.510597        -0.078339         0.997901
 H        -0.290834         1.288441         0.209228
 H        -0.649531        -0.119052        -0.771645
 H         1.314403        -2.024331         0.777636
 H         1.787608        -2.102503        -0.899142
 H         3.743146        -1.978050         2.240436
 H         4.799503         0.579610        -0.010647
 H         3.792204         0.738781        -2.221895
 H         3.110001        -0.854827        -1.937951
 H         2.759179         0.863668         1.814810
