19
Iteration:  3956
 C         0.122233         0.165456         0.481809
 C         1.462618        -0.110011        -0.167801
 C         1.869527        -1.680739        -0.091770
 C         3.273164        -1.178794         0.526133
 O         3.903922        -1.865798         1.622143
 C         3.818625         0.115255        -0.147224
 C         3.224077         0.537185        -1.514423
 O         1.787639         0.376248        -1.511636
 C         2.655533         0.178337         0.724061
 H         0.294603        -0.307819         1.510218
 H        -0.160132         1.230228         0.387556
 H        -0.730261        -0.379416         0.059010
 H         1.347847        -2.070265         0.820987
 H         1.881692        -2.271189        -0.969897
 H         4.838696        -2.109474         1.495026
 H         4.679362         0.639074         0.079931
 H         3.426594         1.678464        -1.716999
 H         3.661428        -0.069975        -2.325791
 H         2.717548         0.917450         1.523491
