19
Iteration:  1431
 C         0.076664         0.175797         0.370164
 C         1.467183        -0.191648        -0.119637
 C         1.976247        -1.710433        -0.040810
 C         3.231342        -1.133731         0.624033
 O         3.964553        -1.771228         1.581442
 C         3.813982         0.028145        -0.211636
 C         3.183804         0.494349        -1.562596
 O         1.745218         0.374166        -1.467118
 C         2.745489         0.287720         0.722795
 H        -0.382920        -0.256314         1.411667
 H         0.055513         1.334075         0.293783
 H        -0.648387        -0.249914        -0.367211
 H         1.389978        -2.184265         0.709399
 H         2.113165        -2.361922        -0.866726
 H         3.534873        -1.841010         2.448040
 H         4.909985         0.147950         0.046901
 H         3.482631         1.559255        -1.873732
 H         3.579961        -0.250536        -2.353449
 H         2.812074         0.803107         1.693533
