19
Iteration:  3348charge 0 multiplicity 1
 C         0.025921         0.289199         0.251329
 C         1.446274        -0.135684        -0.111542
 C         1.839538        -1.710921         0.037161
 C         3.279500        -1.213115         0.507395
 O         4.148486        -1.852112         1.489648
 C         3.693372         0.177672        -0.052312
 C         3.232699         0.602349        -1.511160
 O         1.850104         0.238312        -1.421045
 C         2.538656         0.184122         0.823118
 H        -0.091034         0.339061         1.368273
 H        -0.079558         1.246736        -0.267462
 H        -0.823398        -0.341870        -0.244236
 H         1.525609        -2.114219         0.982962
 H         1.587277        -2.503682        -0.822799
 H         4.954597        -2.177845         1.026826
 H         4.780548         0.367956         0.356052
 H         3.422422         1.666623        -1.965289
 H         3.739440         0.121319        -2.326860
 H         2.474645         0.636064         1.833970
