19
Iteration:  2458charge 0 multiplicity 1
 C         0.118645         0.234375         0.283385
 C         1.473562        -0.200581        -0.074580
 C         1.814716        -1.676152         0.084828
 C         3.163905        -1.145511         0.602797
 O         4.129611        -1.829337         1.374814
 C         3.780539         0.169818        -0.163634
 C         3.201126         0.579635        -1.529745
 O         1.838149         0.160841        -1.485854
 C         2.629011         0.261038         0.847498
 H        -0.253562         0.053826         1.347318
 H         0.052759         1.362088         0.158312
 H        -0.642259        -0.350157        -0.282229
 H         1.300712        -2.050628         0.917458
 H         1.904109        -2.402608        -0.760725
 H         3.687800        -1.987246         2.239197
 H         4.853123         0.506622         0.169346
 H         3.276855         1.737772        -1.673471
 H         3.727742         0.025449        -2.357782
 H         2.576668         0.867666         1.765757
