19
Iteration:  3044charge 0 multiplicity 1
 C         0.125082         0.067946         0.272040
 C         1.540861        -0.084058        -0.096640
 C         1.958690        -1.727837        -0.094905
 C         3.260147        -1.154651         0.549705
 O         3.921573        -1.861378         1.614535
 C         3.859778         0.063239        -0.206785
 C         3.157376         0.467979        -1.541984
 O         1.659817         0.534038        -1.378902
 C         2.707577         0.210343         0.798603
 H         0.039617        -0.334708         1.290760
 H        -0.160675         1.072305         0.239561
 H        -0.619833        -0.574407        -0.342601
 H         1.317706        -2.250086         0.750443
 H         2.002130        -2.216736        -1.148604
 H         4.379546        -1.226948         2.179543
 H         4.751709         0.432378         0.130827
 H         3.666291         1.325330        -2.070523
 H         3.462386        -0.210276        -2.308027
 H         2.677869         0.854737         1.714034
