19
Iteration:   974
 C        -0.017677         0.192786         0.310900
 C         1.466550        -0.169155        -0.075218
 C         1.955544        -1.689277         0.058256
 C         3.219974        -1.109212         0.560642
 O         4.073900        -1.787854         1.496141
 C         3.817057         0.077119        -0.237020
 C         3.240229         0.593879        -1.518425
 O         1.789222         0.253236        -1.419442
 C         2.631789         0.199442         0.719903
 H        -0.153894         0.225795         1.471871
 H        -0.129346         1.276123        -0.162625
 H        -0.659302        -0.517471        -0.256858
 H         1.449480        -2.218563         0.833589
 H         1.938177        -2.175546        -0.895054
 H         3.569418        -2.179880         2.253606
 H         4.892454         0.183393         0.165234
 H         3.410924         1.678586        -1.415712
 H         3.728516         0.084353        -2.393201
 H         2.525998         0.794737         1.700992
