19
Iteration:  1169charge 0 multiplicity 1
 C        -0.090420         0.079781         0.104867
 C         1.440231        -0.111983        -0.081084
 C         1.873940        -1.591199         0.042337
 C         3.211313        -1.015169         0.728426
 O         4.263173        -1.890100         1.241029
 C         3.769159         0.108926        -0.097913
 C         3.252677         0.188378        -1.527667
 O         1.828301         0.516135        -1.329908
 C         2.572301         0.363570         0.954590
 H        -0.282376         0.080622         1.198141
 H        -0.269221         1.087424        -0.359443
 H        -0.516178        -0.809493        -0.352766
 H         1.260621        -1.973184         0.954059
 H         1.864616        -2.320244        -0.884638
 H         3.960422        -2.373874         2.052242
 H         4.681723         0.544381         0.186213
 H         3.662804         1.070956        -2.175323
 H         3.408738        -0.796468        -2.143826
 H         2.563892         0.964475         1.826807
