19
Iteration:   634charge 0 multiplicity 1
 C         0.029599         0.171643         0.222387
 C         1.499563        -0.223102        -0.170593
 C         1.847848        -1.716440         0.039332
 C         3.193230        -1.163774         0.605785
 O         4.105178        -1.752439         1.523556
 C         3.808597         0.025669        -0.226545
 C         3.267965         0.668055        -1.472097
 O         1.815380         0.303012        -1.393407
 C         2.613164         0.152180         0.765662
 H         0.097007         0.286659         1.321625
 H        -0.295227         1.202027        -0.045048
 H        -0.799726        -0.393040        -0.060646
 H         1.490756        -2.428959         0.895938
 H         1.753698        -2.300579        -0.982986
 H         3.782868        -1.771068         2.428975
 H         4.741162         0.364162         0.139305
 H         3.435437         1.830617        -1.413659
 H         3.476639         0.190666        -2.574983
 H         2.615632         0.979772         1.401569
