19
Iteration:  3691charge 0 multiplicity 1
 C        -0.004340         0.198405         0.159946
 C         1.460001        -0.116970        -0.068474
 C         1.889384        -1.601354        -0.004434
 C         3.211419        -1.121381         0.639679
 O         4.155114        -1.922290         1.404838
 C         3.704485         0.057442        -0.122797
 C         3.237623         0.443285        -1.498564
 O         1.791922         0.375097        -1.364519
 C         2.639258         0.268352         0.938271
 H        -0.254094         0.062793         1.215619
 H        -0.148424         1.235651        -0.064121
 H        -0.704145        -0.465388        -0.277547
 H         1.147817        -2.202088         0.645333
 H         1.858810        -2.177230        -0.998606
 H         4.906989        -2.040090         0.788001
 H         4.653901         0.379596         0.093141
 H         3.503626         1.541780        -1.710210
 H         3.740810        -0.233834        -2.346601
 H         2.628031         0.866276         1.858070
