19
Iteration:   817
 C         0.119677         0.161274         0.408193
 C         1.482134        -0.184742        -0.106100
 C         1.928202        -1.667600        -0.025530
 C         3.181870        -1.083959         0.566499
 O         4.039395        -1.754500         1.438904
 C         3.790855         0.125799        -0.100929
 C         3.222271         0.428278        -1.568849
 O         1.851279         0.246456        -1.500559
 C         2.546793         0.333481         0.834978
 H         0.100075        -0.126436         1.537714
 H        -0.141823         1.260202         0.134845
 H        -0.860914        -0.350144        -0.091525
 H         1.487979        -2.316031         0.705529
 H         1.931941        -2.219453        -0.931772
 H         3.617532        -2.504156         1.922284
 H         4.799591         0.346377         0.345679
 H         3.517399         1.545342        -1.761344
 H         3.800191        -0.098915        -2.359960
 H         2.379575         0.990945         1.741712
