19
Iteration:  1132
 C         0.084965         0.214175         0.277402
 C         1.444914        -0.196005        -0.106715
 C         1.963663        -1.683961        -0.105215
 C         3.231879        -1.065191         0.654667
 O         4.122624        -1.862727         1.471249
 C         3.793636         0.151901        -0.123677
 C         3.210181         0.469113        -1.564150
 O         1.766036         0.287559        -1.434799
 C         2.592039         0.278112         0.887149
 H        -0.066166         0.576931         1.343335
 H        -0.236418         1.104972        -0.286086
 H        -0.804436        -0.506767         0.184298
 H         1.380212        -2.283030         0.646963
 H         2.055869        -2.341135        -1.064569
 H         3.531696        -2.350785         2.090969
 H         4.756348         0.658305         0.199781
 H         3.497824         1.536468        -1.815117
 H         3.450414        -0.247790        -2.445043
 H         2.508623         0.783370         1.889570
