19
Iteration:   364
 C         0.137526         0.098120         0.327843
 C         1.458033        -0.131180        -0.154362
 C         1.981091        -1.650569        -0.025862
 C         3.195992        -1.098566         0.631020
 O         3.970125        -1.731245         1.586565
 C         3.783263         0.135576        -0.087303
 C         3.205810         0.451650        -1.522766
 O         1.760595         0.291912        -1.554038
 C         2.631589         0.207497         0.839166
 H        -0.233943        -0.597202         1.087150
 H         0.128062         1.136245         0.706240
 H        -0.478796         0.075896        -0.483412
 H         1.257606        -2.144041         0.717915
 H         2.126875        -2.182192        -1.002564
 H         4.338522        -2.579346         1.247781
 H         4.856211         0.501437        -0.004148
 H         3.424915         1.462208        -1.761767
 H         3.751695        -0.061780        -2.383521
 H         2.551584         1.017486         1.630778
