19
Iteration:  3059
 C         0.195187         0.030360         0.388961
 C         1.538389        -0.222289        -0.165265
 C         1.992869        -1.624375        -0.100526
 C         3.226965        -1.154970         0.611395
 O         3.843118        -1.872120         1.588254
 C         3.718569         0.127881        -0.230083
 C         3.170682         0.470904        -1.622575
 O         1.805635         0.506914        -1.363506
 C         2.670906         0.256244         0.791614
 H        -0.075426        -0.421922         1.346550
 H         0.069203         1.140487         0.572154
 H        -0.444144        -0.534000        -0.260564
 H         1.320846        -2.192472         0.531922
 H         2.033458        -2.232768        -0.958156
 H         4.343282        -1.184512         2.072665
 H         4.896383         0.338298        -0.071090
 H         3.368700         1.514789        -1.792523
 H         3.459043        -0.330713        -2.391114
 H         2.619400         0.889355         1.635953
