19
Iteration:  1233charge 0 multiplicity 1
 C         0.109064         0.202295         0.299253
 C         1.464674        -0.176711        -0.104930
 C         2.029880        -1.676965        -0.019750
 C         3.263491        -1.146663         0.621552
 O         4.065992        -1.816988         1.515293
 C         3.787621         0.103305        -0.113697
 C         3.153840         0.440763        -1.579716
 O         1.726405         0.354506        -1.522167
 C         2.601657         0.278823         0.852109
 H        -0.286221        -0.537292         1.056014
 H         0.001076         1.228108         0.733107
 H        -0.635083         0.400975        -0.464917
 H         1.489818        -2.381706         0.677673
 H         2.021822        -2.220051        -1.009467
 H         3.525824        -1.945966         2.317401
 H         4.729044         0.415404         0.225678
 H         3.398259         1.400802        -2.179977
 H         3.694519        -0.379897        -2.079384
 H         2.603000         0.868967         1.734300
