19
Iteration:  1689charge 0 multiplicity 1
 C         0.148725         0.358647         0.300900
 C         1.446413        -0.179344        -0.042843
 C         1.912162        -1.707514         0.049987
 C         3.209814        -1.122701         0.550245
 O         4.147084        -1.826858         1.432350
 C         3.662505         0.183477        -0.161946
 C         3.221360         0.442935        -1.530478
 O         1.805027         0.146428        -1.466377
 C         2.569745         0.281608         0.823789
 H        -0.066691        -0.004383         1.324278
 H         0.108572         1.411107        -0.011078
 H        -0.577737        -0.039288        -0.437865
 H         1.549488        -2.340558         0.841664
 H         1.951540        -2.383723        -0.801227
 H         3.523245        -1.976814         2.179748
 H         4.535852         0.572869         0.235338
 H         3.505518         1.553634        -1.697174
 H         3.729547        -0.121092        -2.290594
 H         2.601457         0.869551         1.683288
