19
Iteration:   180charge 0 multiplicity 1
 C         0.133815         0.236861         0.324901
 C         1.461177        -0.180923        -0.180490
 C         2.005198        -1.759236        -0.085737
 C         3.208828        -1.171443         0.564334
 O         3.964748        -1.780940         1.661595
 C         3.783676         0.081976        -0.154942
 C         3.206351         0.562672        -1.529768
 O         1.769071         0.302873        -1.438831
 C         2.579712         0.196104         0.774216
 H        -0.043279        -0.270364         1.320791
 H         0.250681         1.381013         0.413284
 H        -0.728758        -0.103431        -0.367226
 H         1.338863        -2.297383         0.685947
 H         1.853005        -2.435362        -0.920866
 H         4.850204        -1.368966         1.522034
 H         4.761049         0.408929         0.094423
 H         3.411838         1.691340        -1.715936
 H         3.631825         0.061038        -2.425470
 H         2.521460         0.731026         1.645640
