19
Iteration:  3370
 C         0.076181         0.218017         0.224334
 C         1.484155        -0.227903        -0.119179
 C         1.945347        -1.715038         0.084937
 C         3.210674        -1.134488         0.597326
 O         3.971296        -1.818921         1.460650
 C         3.804332         0.071399        -0.181147
 C         3.136157         0.589094        -1.432617
 O         1.793396         0.306827        -1.466416
 C         2.672772         0.224259         0.863629
 H        -0.093033         0.027744         1.307967
 H         0.099317         1.252471        -0.107351
 H        -0.838255        -0.320159        -0.272737
 H         1.429436        -2.260332         0.866412
 H         1.914139        -2.416191        -0.883600
 H         4.820492        -2.087428         1.097661
 H         4.848999         0.337898         0.212305
 H         3.552195         1.664800        -1.453570
 H         3.473120         0.416555        -2.412164
 H         2.735967         1.015617         1.655292
