19
Iteration:   158
 C        -0.009049         0.156801         0.282894
 C         1.443798        -0.185864        -0.110058
 C         1.988136        -1.688255         0.048168
 C         3.260770        -1.062858         0.579218
 O         3.945226        -1.823994         1.484514
 C         3.795529         0.090098        -0.138429
 C         3.252858         0.398095        -1.514734
 O         1.812995         0.395304        -1.457253
 C         2.598181         0.296147         0.829842
 H        -0.284244        -0.260535         1.307119
 H        -0.182744         1.309832         0.221271
 H        -0.741415        -0.422443        -0.410443
 H         1.555888        -2.424924         0.786567
 H         2.010712        -2.395177        -0.792530
 H         4.898556        -1.877519         1.342126
 H         4.752070         0.444371         0.158637
 H         3.626085         1.470913        -1.763284
 H         3.741275        -0.211035        -2.293715
 H         2.661687         0.925934         1.649725
