19
Iteration:  1349charge 0 multiplicity 1
 C         0.007473         0.164652         0.100702
 C         1.429182        -0.076433        -0.048126
 C         1.838957        -1.578048         0.105111
 C         3.278483        -1.132709         0.671927
 O         4.281604        -1.865379         1.227843
 C         3.737758         0.204549        -0.016982
 C         3.277900         0.167636        -1.487361
 O         1.781431         0.380528        -1.383297
 C         2.568452         0.387996         0.932750
 H        -0.583553         0.046979         1.077515
 H        -0.234440         1.255629        -0.118847
 H        -0.603747        -0.315545        -0.741686
 H         1.124438        -2.034857         0.877041
 H         1.718730        -2.293930        -0.791287
 H         3.904516        -2.546601         1.800006
 H         4.749210         0.424431         0.242866
 H         3.629425         0.924647        -2.169718
 H         3.416564        -0.872923        -1.930475
 H         2.366426         1.272512         1.510538
