19
Iteration:   674
 C         0.039842         0.277404         0.258455
 C         1.424641        -0.169916        -0.126650
 C         1.979040        -1.666302        -0.066173
 C         3.272022        -1.075960         0.637775
 O         4.125483        -1.829389         1.463362
 C         3.792045         0.166390        -0.113671
 C         3.228363         0.432203        -1.508089
 O         1.774020         0.231802        -1.451981
 C         2.553056         0.227549         0.888254
 H        -0.113367        -0.397113         1.090889
 H         0.164654         1.349310         0.442889
 H        -0.770751         0.054514        -0.546852
 H         1.367139        -2.281258         0.606433
 H         2.090234        -2.127269        -1.020661
 H         3.517619        -2.298257         2.086216
 H         4.644510         0.720507         0.257874
 H         3.309489         1.413039        -1.914118
 H         3.575772        -0.362786        -2.155093
 H         2.501072         0.938985         1.693384
