19
Iteration:  4294charge 0 multiplicity 1
 C         0.066098         0.132390         0.172739
 C         1.493628        -0.077119         0.005703
 C         1.973468        -1.526051         0.087059
 C         3.242536        -1.111552         0.690507
 O         4.002926        -2.034558         1.328310
 C         3.756810         0.042037        -0.098929
 C         3.197931         0.296557        -1.540812
 O         1.766567         0.399602        -1.345469
 C         2.601091         0.427140         0.838273
 H        -0.425076         0.175670         1.120709
 H        -0.069316         1.100502        -0.129945
 H        -0.262225        -0.540078        -0.550687
 H         1.317004        -2.149767         0.764232
 H         2.036000        -1.956164        -0.986766
 H         4.877069        -1.659229         1.479128
 H         4.814267         0.387185         0.077049
 H         3.460620         1.350713        -2.001833
 H         3.470030        -0.316608        -2.429345
 H         2.624633         1.305533         1.451271
