19
Iteration:  2565charge 0 multiplicity 1
 C         0.018524         0.124328         0.203671
 C         1.517022        -0.104068        -0.047646
 C         1.987236        -1.624156         0.049067
 C         3.218481        -1.067855         0.674937
 O         4.116517        -1.857244         1.346558
 C         3.719851         0.042105        -0.103291
 C         3.184379         0.293363        -1.555478
 O         1.793443         0.442400        -1.371277
 C         2.630866         0.371843         0.825672
 H        -0.174026        -0.139434         1.226472
 H        -0.376740         1.071676        -0.056069
 H        -0.470754        -0.606527        -0.471085
 H         1.280951        -2.114836         0.786764
 H         2.007489        -2.282415        -0.843489
 H         3.823858        -2.187571         2.224424
 H         4.715796         0.496889        -0.055122
 H         3.441648         1.284644        -2.001824
 H         3.348606        -0.630392        -2.184965
 H         2.674263         1.073500         1.571002
