19
Iteration:  2198charge 0 multiplicity 1
 C         0.140411         0.128765         0.332648
 C         1.519200        -0.190227        -0.172293
 C         1.960556        -1.670718        -0.054851
 C         3.155237        -1.120975         0.662463
 O         3.983046        -1.796389         1.564647
 C         3.746486         0.115061        -0.184757
 C         3.175103         0.434205        -1.552756
 O         1.759931         0.444515        -1.427773
 C         2.663742         0.248119         0.868271
 H        -0.044033        -0.479654         1.244465
 H         0.156287         1.220527         0.528029
 H        -0.541290        -0.158366        -0.418122
 H         1.357907        -2.267973         0.622103
 H         2.174369        -2.131103        -0.972757
 H         4.434486        -2.519126         1.113566
 H         4.800229         0.409229        -0.150273
 H         3.537134         1.380113        -1.955955
 H         3.474922        -0.402139        -2.178867
 H         2.566238         1.002766         1.564916
