19
Iteration:   618
 C        -0.005552         0.139828         0.239008
 C         1.425807        -0.128292        -0.099765
 C         1.899633        -1.688131         0.038896
 C         3.272563        -1.189699         0.562880
 O         4.136753        -1.824458         1.485226
 C         3.758363         0.036343        -0.130792
 C         3.221509         0.534363        -1.494507
 O         1.810375         0.355299        -1.472063
 C         2.664185         0.293384         0.792133
 H        -0.255344         0.265849         1.301629
 H        -0.376456         1.019731        -0.290165
 H        -0.551417        -0.792679        -0.236853
 H         1.174792        -1.996379         0.767822
 H         1.880046        -2.387535        -0.749517
 H         3.668265        -1.655122         2.308642
 H         4.817803         0.278711         0.178503
 H         3.445077         1.588071        -1.507976
 H         3.761250         0.140155        -2.308778
 H         2.591973         0.816895         1.788744
