19
Iteration:  3095
 C         0.064505         0.139456         0.414040
 C         1.457814        -0.148390        -0.110782
 C         2.051273        -1.553714        -0.135374
 C         3.287799        -1.104748         0.597112
 O         3.994303        -1.975344         1.471150
 C         3.763099         0.148614        -0.054271
 C         3.213291         0.288159        -1.481135
 O         1.716295         0.410351        -1.487057
 C         2.577939         0.325943         0.779815
 H        -0.114415        -0.554855         1.254305
 H        -0.216611         1.198845         0.650549
 H        -0.641149         0.004124        -0.415852
 H         1.435327        -2.110612         0.464749
 H         2.150636        -1.952801        -1.130914
 H         4.633940        -1.420259         1.958142
 H         4.678421         0.511305         0.250340
 H         3.577992         1.210318        -1.919103
 H         3.708006        -0.433760        -2.157984
 H         2.562886         1.184492         1.549160
