19
Iteration:  2705
 C         0.072098        -0.004205         0.170380
 C         1.543122        -0.075182        -0.086546
 C         1.959587        -1.536287         0.020792
 C         3.253069        -1.141051         0.628384
 O         4.191363        -1.777849         1.483672
 C         3.684560        -0.028547        -0.172602
 C         3.098760         0.205760        -1.600567
 O         1.755729         0.612969        -1.324981
 C         2.647345         0.299645         0.870639
 H        -0.274703        -0.138756         1.198816
 H        -0.177012         1.031910        -0.047271
 H        -0.594944        -0.475610        -0.695823
 H         1.163350        -2.027631         0.597958
 H         1.981111        -2.027022        -0.911840
 H         3.805615        -2.217277         2.274886
 H         4.599522         0.430770         0.004354
 H         3.576296         1.011426        -2.060849
 H         3.068975        -0.759830        -2.089170
 H         2.745803         0.928440         1.592945
