19
Iteration:  2377charge 0 multiplicity 1
 C         0.017510         0.085438         0.256378
 C         1.509118        -0.117235        -0.055383
 C         1.967535        -1.646617        -0.048375
 C         3.199039        -1.101034         0.612414
 O         4.101656        -1.722906         1.487449
 C         3.786152         0.048274        -0.185001
 C         3.161198         0.224412        -1.539019
 O         1.763498         0.541693        -1.296231
 C         2.704098         0.317124         0.812562
 H        -0.429878        -0.324497         1.121047
 H        -0.203035         1.107370         0.107321
 H        -0.546907        -0.213819        -0.718589
 H         1.446433        -2.382465         0.631558
 H         1.839321        -2.105596        -0.969630
 H         3.771727        -2.637798         1.559342
 H         4.764789         0.166515        -0.095489
 H         3.720627         1.138556        -2.036891
 H         3.223882        -0.716291        -2.168656
 H         2.581610         0.908524         1.642465
