19
Iteration:  2784charge 0 multiplicity 1
 C        -0.001173         0.334792         0.258610
 C         1.429633        -0.215934        -0.098100
 C         1.936308        -1.735268         0.102331
 C         3.175250        -1.082413         0.636628
 O         4.184484        -1.829183         1.377788
 C         3.695301         0.090872        -0.181020
 C         3.238583         0.560974        -1.537970
 O         1.822157         0.190834        -1.474150
 C         2.605250         0.254757         0.831473
 H        -0.465596        -0.004777         1.227909
 H         0.191995         1.446025         0.357800
 H        -0.792561        -0.084096        -0.352141
 H         1.535059        -2.258616         1.004647
 H         2.078220        -2.244868        -0.840483
 H         3.838504        -2.220227         2.209999
 H         4.704373         0.164988         0.369555
 H         3.492699         1.628143        -1.605487
 H         3.722648         0.094286        -2.414472
 H         2.781057         0.940270         1.792805
