19
Iteration:  1437charge 0 multiplicity 1
 C         0.029311         0.137765         0.374480
 C         1.504950        -0.172318        -0.098713
 C         1.933992        -1.723242        -0.000582
 C         3.219019        -1.090389         0.611976
 O         3.983746        -1.802477         1.554612
 C         3.800211         0.056890        -0.178938
 C         3.225055         0.399313        -1.582679
 O         1.760288         0.424888        -1.460377
 C         2.701851         0.348044         0.712199
 H        -0.026426        -0.221604         1.345046
 H        -0.027737         1.198642         0.236359
 H        -0.615408        -0.225006        -0.439854
 H         1.350000        -2.449382         0.672913
 H         2.146080        -2.246487        -0.989758
 H         3.697092        -1.790096         2.476950
 H         4.850947         0.222191        -0.039983
 H         3.664860         1.368303        -1.774249
 H         3.452707        -0.246263        -2.418293
 H         2.768037         0.711135         1.731474
