19
Iteration:  2119
 C         0.115135         0.072671         0.199360
 C         1.515355        -0.146686        -0.107579
 C         1.935883        -1.592073         0.125560
 C         3.217588        -1.119276         0.673428
 O         4.024993        -1.888841         1.440670
 C         3.714915         0.151213        -0.124535
 C         3.151432         0.310454        -1.576310
 O         1.788209         0.488905        -1.406810
 C         2.661758         0.351132         0.870279
 H        -0.109066        -0.191580         1.224010
 H        -0.196854         1.108004         0.185757
 H        -0.575919        -0.503052        -0.512591
 H         1.174834        -2.098490         0.687437
 H         2.009866        -2.150266        -0.888774
 H         4.340492        -2.587598         0.850833
 H         4.755447         0.500651         0.082715
 H         3.673681         1.137871        -2.004672
 H         3.476160        -0.515140        -2.273184
 H         2.832863         1.125315         1.756589
