19
Iteration:  3725
 C        -0.035172         0.157162        -0.013404
 C         1.441107        -0.140926        -0.023367
 C         1.892451        -1.642845         0.165884
 C         3.263053        -1.120977         0.614513
 O         4.143374        -1.978911         1.217279
 C         3.667936         0.205156        -0.100786
 C         3.202923         0.274093        -1.446152
 O         1.803677         0.489256        -1.285968
 C         2.664251         0.344227         0.988757
 H        -0.495150        -0.233158         0.914608
 H        -0.140843         1.207883         0.034469
 H        -0.477592        -0.047432        -0.923324
 H         1.399305        -1.975140         1.185953
 H         1.816425        -2.334474        -0.741324
 H         4.994323        -2.081730         0.752232
 H         4.617152         0.627901         0.126443
 H         3.662912         1.194274        -1.968888
 H         3.664983        -0.733580        -1.986283
 H         2.783465         1.047896         1.849643
