19
Iteration:  1790charge 0 multiplicity 1
 C         0.031869         0.008800         0.282000
 C         1.495720        -0.080869        -0.097750
 C         1.951327        -1.459153        -0.045259
 C         3.251089        -1.027456         0.702606
 O         4.101023        -1.859507         1.356574
 C         3.736239         0.115987        -0.117876
 C         3.246984         0.064158        -1.550863
 O         1.797452         0.471370        -1.368607
 C         2.592727         0.423526         0.873316
 H        -0.303797        -0.464823         1.219762
 H        -0.366973         0.990786         0.425357
 H        -0.378927        -0.496265        -0.562769
 H         1.284319        -1.873812         0.653221
 H         1.852777        -1.911055        -0.998678
 H         3.540293        -2.597915         1.643188
 H         4.706838         0.684363         0.099720
 H         3.709996         0.790627        -2.297620
 H         3.363574        -0.934910        -1.843229
 H         2.692640         1.242218         1.664793
