19
Iteration:  1537charge 0 multiplicity 1
 C        -0.012916         0.310813         0.280336
 C         1.447374        -0.148595        -0.127144
 C         1.874113        -1.714586         0.154799
 C         3.157731        -1.123802         0.640418
 O         4.147631        -1.788872         1.429227
 C         3.764293         0.094957        -0.175953
 C         3.217957         0.563010        -1.590125
 O         1.873216         0.110326        -1.453564
 C         2.663821         0.271314         0.764372
 H        -0.180659         0.102048         1.340732
 H         0.177030         1.414998         0.390094
 H        -0.637079        -0.181931        -0.520906
 H         1.212825        -1.987073         1.087824
 H         1.876572        -2.552882        -0.639556
 H         3.672126        -2.474600         1.925320
 H         4.727552         0.437785         0.303005
 H         3.147618         1.694944        -1.672166
 H         3.768890         0.231965        -2.472842
 H         2.700140         0.873766         1.642854
