19
Iteration:  2205charge 0 multiplicity 1
 C         0.041217         0.148465         0.337071
 C         1.471820        -0.125101        -0.121702
 C         1.990759        -1.688875        -0.018968
 C         3.232889        -1.102345         0.663118
 O         4.003764        -1.842560         1.522123
 C         3.753558         0.109606        -0.179119
 C         3.235819         0.413322        -1.562227
 O         1.780885         0.427453        -1.422641
 C         2.619984         0.301385         0.853897
 H        -0.252425        -0.471316         1.159749
 H        -0.150781         1.196000         0.542649
 H        -0.468200        -0.384480        -0.551573
 H         1.371807        -2.210764         0.719198
 H         2.129070        -2.175604        -1.097938
 H         4.373493        -2.584477         1.010171
 H         4.746853         0.363044         0.050495
 H         3.594673         1.324621        -2.021037
 H         3.379795        -0.458662        -2.313119
 H         2.705547         1.122341         1.618071
