19
Iteration:  3694charge 0 multiplicity 1
 C        -0.039134         0.193794         0.153004
 C         1.459958        -0.081213        -0.069566
 C         1.894384        -1.587404         0.014724
 C         3.211882        -1.133780         0.647839
 O         4.177294        -1.934113         1.386293
 C         3.729089         0.052418        -0.135896
 C         3.255897         0.432782        -1.521291
 O         1.782587         0.369873        -1.337272
 C         2.612958         0.271319         0.945217
 H        -0.300763         0.002402         1.209246
 H        -0.161022         1.200246        -0.192668
 H        -0.792013        -0.384320        -0.393232
 H         1.137621        -2.162614         0.701336
 H         1.899256        -2.140967        -0.948109
 H         4.939236        -2.054258         0.793550
 H         4.746095         0.398977         0.160406
 H         3.527593         1.442934        -1.762433
 H         3.727940        -0.144428        -2.281222
 H         2.557951         0.840140         1.892436
