19
Iteration:  2282charge 0 multiplicity 1
 C        -0.086931         0.303075         0.209955
 C         1.391471        -0.098250        -0.113864
 C         1.923100        -1.669633         0.002955
 C         3.243080        -1.199763         0.643506
 O         4.200892        -1.839860         1.474786
 C         3.793064         0.066163        -0.116285
 C         3.232929         0.330588        -1.509409
 O         1.747407         0.398653        -1.390753
 C         2.640956         0.250858         0.853222
 H        -0.235034         0.144296         1.274154
 H        -0.307989         1.347891         0.026690
 H        -0.882720        -0.243654        -0.387262
 H         1.502411        -2.242320         0.797344
 H         1.896430        -2.488928        -0.801646
 H         5.041620        -1.993814         0.980381
 H         4.646610         0.503560         0.218120
 H         3.452390         1.287987        -1.915009
 H         3.461487        -0.318947        -2.348984
 H         2.740008         1.013791         1.541799
