19
Iteration:  1923charge 0 multiplicity 1
 C        -0.049720         0.230187         0.105979
 C         1.476874        -0.099287        -0.008800
 C         1.900959        -1.657121         0.135292
 C         3.190577        -1.066773         0.630108
 O         4.190362        -1.782801         1.234689
 C         3.710478         0.111753        -0.109775
 C         3.251609         0.235526        -1.549093
 O         1.830506         0.348369        -1.330535
 C         2.660269         0.294469         0.945894
 H        -0.424914        -0.054556         1.076027
 H        -0.213964         1.264916        -0.035038
 H        -0.669864        -0.330906        -0.663966
 H         1.401089        -2.072645         0.956176
 H         1.978621        -2.314881        -0.669029
 H         3.702748        -2.434822         1.774857
 H         4.753179         0.287086         0.151819
 H         3.587098         1.221506        -1.989782
 H         3.448696        -0.582569        -2.148732
 H         2.560336         1.136106         1.649317
