19
Iteration:   418charge 0 multiplicity 1
 C         0.021547         0.050157        -0.006401
 C         1.474694        -0.075561        -0.040715
 C         2.012358        -1.607230         0.040370
 C         3.227711        -1.065362         0.678304
 O         4.154280        -1.782881         1.458519
 C         3.692091         0.050901        -0.099698
 C         3.141209         0.238295        -1.545243
 O         1.773125         0.549446        -1.317494
 C         2.633755         0.307729         0.943106
 H        -0.259099        -0.180891         1.078890
 H        -0.306274         1.082353        -0.375117
 H        -0.406398        -0.713244        -0.592550
 H         1.203707        -2.087901         0.514312
 H         2.134073        -2.116046        -0.902983
 H         4.352585        -2.677469         1.077264
 H         4.778031         0.387712        -0.125562
 H         3.566599         1.017238        -2.155353
 H         3.213465        -0.848746        -1.991567
 H         2.587302         0.851066         1.957843
