19
Iteration:  4220charge 0 multiplicity 1
 C         0.047930         0.319204         0.278577
 C         1.435241        -0.195956        -0.094162
 C         1.950831        -1.705184        -0.047448
 C         3.162653        -1.155614         0.683501
 O         4.093451        -1.742242         1.516188
 C         3.805771         0.005942        -0.172218
 C         3.209501         0.482261        -1.540373
 O         1.790093         0.323636        -1.443513
 C         2.638160         0.209278         0.831672
 H        -0.278359         0.019397         1.331928
 H         0.267146         1.428918         0.612464
 H        -0.769228         0.118165        -0.497166
 H         1.313102        -2.327637         0.650243
 H         2.194925        -2.052387        -1.029092
 H         4.324549        -2.577559         1.048088
 H         4.782073         0.253785         0.283189
 H         3.396824         1.502587        -1.734879
 H         3.402146        -0.193024        -2.447697
 H         2.370309         0.754210         1.712615
