19
Iteration:   502charge 0 multiplicity 1
 C         0.048936         0.288703         0.268106
 C         1.494780        -0.232381        -0.153478
 C         1.965475        -1.675325        -0.007815
 C         3.261714        -1.111859         0.674200
 O         4.060901        -1.876718         1.588303
 C         3.743980         0.076698        -0.264361
 C         3.151113         0.590673        -1.525974
 O         1.796467         0.227637        -1.478080
 C         2.638380         0.241878         0.767000
 H        -0.243104        -0.406631         1.072613
 H        -0.077259         1.319400         0.683391
 H        -0.603546         0.036554        -0.571484
 H         1.507694        -2.294528         0.845067
 H         2.059415        -2.395326        -0.891514
 H         3.740494        -1.597642         2.462424
 H         4.773044         0.409139         0.049571
 H         3.220517         1.734112        -1.471389
 H         3.635788         0.400463        -2.441991
 H         2.759013         0.776179         1.764185
