19
Iteration:  1468charge 0 multiplicity 1
 C        -0.000865         0.087725         0.259385
 C         1.457481        -0.069828        -0.129382
 C         1.960449        -1.540817        -0.029055
 C         3.233947        -1.091459         0.691857
 O         4.145939        -1.861043         1.391821
 C         3.765406         0.141350        -0.085103
 C         3.185656         0.102556        -1.527590
 O         1.806390         0.529812        -1.449561
 C         2.591060         0.320960         0.850117
 H        -0.273299        -0.101087         1.310709
 H        -0.244857         1.136179         0.170592
 H        -0.616419        -0.580013        -0.395942
 H         1.272146        -2.063879         0.688588
 H         1.979691        -2.162770        -0.992121
 H         3.970060        -1.943692         2.359785
 H         4.731168         0.494717         0.192090
 H         3.813862         0.790137        -2.207132
 H         3.175757        -0.870755        -1.964915
 H         2.782183         0.953216         1.757628
