19
Iteration:  1867charge 0 multiplicity 1
 C         0.128901         0.291004         0.270583
 C         1.445044        -0.224180        -0.051111
 C         1.915271        -1.713263         0.104331
 C         3.176756        -1.087026         0.604339
 O         4.038609        -1.847054         1.399746
 C         3.707590         0.105565        -0.206708
 C         3.205838         0.600247        -1.541421
 O         1.819067         0.121860        -1.484764
 C         2.706441         0.244198         0.849070
 H        -0.329711         0.196389         1.289536
 H         0.152917         1.389886         0.209068
 H        -0.642097        -0.005573        -0.434353
 H         1.449846        -2.311771         0.814915
 H         2.055766        -2.219618        -0.783109
 H         3.907314        -1.500946         2.313047
 H         4.712581         0.333590         0.101026
 H         3.338698         1.741658        -1.479321
 H         3.690340         0.396019        -2.430865
 H         2.652408         0.715567         1.765981
