19
Iteration:  1083
 C         0.064252         0.152715         0.306646
 C         1.447315        -0.231627        -0.173365
 C         1.942888        -1.628099         0.059932
 C         3.222656        -1.146231         0.604944
 O         4.037184        -1.717499         1.536452
 C         3.812383         0.032401        -0.239541
 C         3.250324         0.545264        -1.523503
 O         1.783890         0.334622        -1.429953
 C         2.652848         0.229332         0.766798
 H        -0.315731        -0.361363         1.206961
 H        -0.096573         1.196496         0.686726
 H        -0.764260        -0.201792        -0.275996
 H         1.390751        -2.179869         0.777947
 H         2.135656        -2.190780        -0.787387
 H         3.718725        -2.602712         1.778676
 H         4.835378         0.205219         0.093633
 H         3.359620         1.585888        -1.625883
 H         3.532279         0.036587        -2.400227
 H         2.500262         0.945213         1.578471
