19
Iteration:   617
 C        -0.002436         0.127053         0.235687
 C         1.427749        -0.119579        -0.093821
 C         1.900891        -1.684548         0.037996
 C         3.275161        -1.178936         0.567478
 O         4.134241        -1.827846         1.478760
 C         3.755819         0.034541        -0.129911
 C         3.220104         0.529548        -1.498182
 O         1.807160         0.356109        -1.478133
 C         2.666364         0.294172         0.802141
 H        -0.268729         0.295804         1.305792
 H        -0.376215         1.021529        -0.295015
 H        -0.573528        -0.772674        -0.250942
 H         1.196638        -1.989082         0.740303
 H         1.877485        -2.397133        -0.728923
 H         3.671889        -1.669028         2.306716
 H         4.810856         0.304852         0.174801
 H         3.469641         1.560821        -1.514785
 H         3.754999         0.108735        -2.254841
 H         2.598738         0.801711         1.806636
