19
Iteration:  3257charge 0 multiplicity 1
 C         0.011701        -0.022869         0.286676
 C         1.481095        -0.141288        -0.087001
 C         1.976857        -1.683821        -0.099712
 C         3.216710        -1.145547         0.545167
 O         3.935432        -1.747861         1.611002
 C         3.784566         0.079879        -0.213164
 C         3.199617         0.350811        -1.550363
 O         1.804767         0.612257        -1.298456
 C         2.718777         0.232971         0.815254
 H        -0.299720        -0.716520         1.085690
 H        -0.167226         1.024608         0.623759
 H        -0.566461        -0.026057        -0.602957
 H         1.405776        -2.372287         0.613243
 H         1.983424        -1.958383        -1.199898
 H         4.775994        -2.137282         1.320365
 H         4.758315         0.322156        -0.102576
 H         3.674530         1.256311        -2.041711
 H         3.260546        -0.398028        -2.353888
 H         2.794549         0.892965         1.672042
