19
Iteration:  2256
 C         0.078053         0.157871         0.039396
 C         1.500053        -0.106335         0.009530
 C         1.915125        -1.615011         0.198062
 C         3.187543        -1.155287         0.698679
 O         4.159354        -1.841065         1.290416
 C         3.678617         0.117412        -0.130196
 C         3.158980         0.270554        -1.535994
 O         1.795059         0.468955        -1.324679
 C         2.628133         0.315621         0.930409
 H        -0.429802         0.139574         1.032839
 H        -0.057631         1.213277        -0.324056
 H        -0.485148        -0.483081        -0.787445
 H         1.353223        -2.313865         0.913729
 H         1.937533        -2.211661        -0.665794
 H         4.667723        -2.420375         0.674765
 H         4.776750         0.454448         0.094421
 H         3.567908         1.146719        -2.192922
 H         3.338318        -0.491998        -2.290432
 H         2.443982         0.858698         1.950723
