19
Iteration:  4993
 C         0.087792         0.452924         0.296294
 C         1.511378        -0.192925        -0.130552
 C         1.857142        -1.665463         0.128971
 C         3.238181        -1.149614         0.587696
 O         4.115645        -1.858787         1.452828
 C         3.732939         0.053113        -0.202574
 C         3.219639         0.516640        -1.454523
 O         1.811135         0.077567        -1.492357
 C         2.571225         0.341217         0.769646
 H         0.031520        -0.007635         1.287978
 H         0.356744         1.545752         0.249560
 H        -0.682357         0.001481        -0.435557
 H         1.401515        -2.060491         1.095091
 H         1.735060        -2.253145        -0.715616
 H         3.592347        -2.511179         1.981109
 H         4.759074         0.408856         0.182221
 H         3.247000         1.609179        -1.619467
 H         3.664582        -0.002037        -2.438659
 H         2.590512         1.233265         1.463842
