19
Iteration:   660charge 0 multiplicity 1
 C         0.121833         0.278729         0.280631
 C         1.512967        -0.193001        -0.146773
 C         1.998598        -1.723534        -0.029647
 C         3.231381        -1.165375         0.558124
 O         4.101647        -1.778818         1.519235
 C         3.696823         0.117556        -0.067184
 C         3.186343         0.511425        -1.478744
 O         1.741850         0.253101        -1.517634
 C         2.600807         0.242348         0.806286
 H        -0.196944         0.058436         1.329023
 H        -0.061033         1.380931         0.302864
 H        -0.673819        -0.096699        -0.452066
 H         1.570245        -2.354489         0.674983
 H         2.022164        -2.252089        -0.944570
 H         3.583900        -2.074007         2.282081
 H         4.811436         0.204006         0.094806
 H         3.387214         1.609461        -1.502780
 H         3.597833         0.103670        -2.328683
 H         2.422456         0.757899         1.803084
