19
Iteration:   586charge 0 multiplicity 1
 C        -0.019176         0.116609         0.137852
 C         1.470197        -0.124935        -0.079739
 C         1.990540        -1.621186         0.001747
 C         3.273118        -1.018274         0.674491
 O         4.150393        -1.913864         1.327035
 C         3.727506         0.198437        -0.046724
 C         3.199276         0.234162        -1.563870
 O         1.828691         0.408010        -1.284928
 C         2.579581         0.400611         0.861150
 H        -0.322812         0.061218         1.170018
 H        -0.418401         1.060855        -0.231248
 H        -0.676750        -0.625444        -0.477435
 H         1.257159        -2.285350         0.584127
 H         2.206239        -2.195640        -0.901174
 H         3.548456        -2.418620         1.935625
 H         4.765859         0.505201         0.280805
 H         3.512053         1.129454        -2.130673
 H         3.540385        -0.796325        -2.018790
 H         2.420846         1.189002         1.663168
