19
Iteration:  3605
 C         0.012367        -0.022660         0.281766
 C         1.496699        -0.100488        -0.083672
 C         1.989680        -1.584176        -0.084576
 C         3.250667        -1.118581         0.682877
 O         3.948768        -1.826567         1.558375
 C         3.765753         0.036520        -0.235242
 C         3.162473         0.316072        -1.564284
 O         1.820507         0.597876        -1.339772
 C         2.704055         0.309070         0.850603
 H        -0.153965        -0.872203         1.028377
 H        -0.163352         0.946277         0.682618
 H        -0.716985        -0.045558        -0.512198
 H         1.278731        -2.305395         0.489889
 H         2.233887        -2.022367        -1.097215
 H         4.438159        -2.463509         0.994225
 H         4.754798         0.350973        -0.015548
 H         3.586372         1.096792        -2.168618
 H         3.277183        -0.420621        -2.265752
 H         2.714239         1.127132         1.574742
