19
Iteration:  1552charge 0 multiplicity 1
 C         0.144055         0.317278         0.331555
 C         1.447074        -0.258555        -0.084969
 C         1.858120        -1.684466         0.149387
 C         3.229694        -1.063557         0.553557
 O         4.067236        -1.765307         1.414085
 C         3.781090         0.077800        -0.187590
 C         3.246163         0.570380        -1.445577
 O         1.830594         0.062112        -1.558165
 C         2.580206         0.286820         0.790677
 H        -0.038188        -0.144644         1.324319
 H         0.068202         1.363595         0.276335
 H        -0.678651         0.137976        -0.300216
 H         1.412988        -2.197233         0.959514
 H         1.752270        -2.182516        -0.780424
 H         3.580182        -2.144447         2.159562
 H         4.767036         0.413669         0.000365
 H         3.388111         1.593164        -1.446883
 H         3.628023         0.147720        -2.398704
 H         2.464003         1.051308         1.580607
