19
Iteration:   744charge 0 multiplicity 1
 C        -0.105914         0.108212         0.074591
 C         1.416418        -0.070113         0.021263
 C         1.942126        -1.662324         0.090763
 C         3.324465        -1.090652         0.604400
 O         4.182482        -1.830203         1.402900
 C         3.815801         0.022537        -0.154593
 C         3.161596         0.318146        -1.614685
 O         1.809294         0.523006        -1.313657
 C         2.616724         0.293639         0.885838
 H        -0.552649        -0.541560         0.845160
 H        -0.449883         1.146616         0.016380
 H        -0.461259        -0.351189        -0.777973
 H         1.325457        -2.317908         0.845852
 H         2.062226        -2.233779        -0.947172
 H         3.722439        -1.935959         2.264025
 H         4.869681         0.322112         0.139512
 H         3.737523         1.210084        -1.919497
 H         3.203859        -0.701178        -2.137358
 H         2.767907         1.043188         1.718759
