19
Iteration:   205charge 0 multiplicity 1
 C         0.111466         0.263434         0.304192
 C         1.470591        -0.170340        -0.101483
 C         1.982407        -1.763723        -0.066827
 C         3.260290        -1.171541         0.645116
 O         4.024685        -1.840236         1.627982
 C         3.696793         0.080195        -0.135729
 C         3.201834         0.516882        -1.529721
 O         1.740893         0.313763        -1.532237
 C         2.609668         0.237717         0.815253
 H        -0.227933        -0.267319         1.249527
 H         0.254092         1.349630         0.441561
 H        -0.675035         0.006064        -0.578571
 H         1.185331        -2.413551         0.222759
 H         2.138661        -2.141202        -1.075218
 H         4.900094        -1.421136         1.696242
 H         4.622984         0.657618         0.141636
 H         3.524773         1.610256        -1.727745
 H         3.630823        -0.043646        -2.430458
 H         2.533632         0.912374         1.728028
