19
Iteration:  1846charge 0 multiplicity 1
 C         0.090294         0.316109         0.257714
 C         1.471569        -0.213258        -0.128038
 C         1.864446        -1.707816        -0.045013
 C         3.295648        -1.170363         0.522632
 O         4.115486        -1.771392         1.573859
 C         3.817734         0.049308        -0.160111
 C         3.101729         0.531978        -1.502998
 O         1.761345         0.279775        -1.400405
 C         2.697934         0.171950         0.791530
 H        -0.181588        -0.004045         1.240792
 H        -0.116339         1.315828         0.116464
 H        -0.640969        -0.186310        -0.333531
 H         1.395642        -2.226658         0.745864
 H         1.755918        -2.223629        -0.948838
 H         3.648087        -1.483706         2.372556
 H         4.823784         0.351380         0.076131
 H         3.286588         1.595006        -1.843511
 H         3.426641        -0.055386        -2.296193
 H         2.648556         0.788680         1.629163
