19
Iteration:  1144
 C        -0.035712         0.226446         0.244239
 C         1.466359        -0.131602        -0.078464
 C         2.021151        -1.680434        -0.023250
 C         3.288547        -1.109343         0.573705
 O         4.131250        -1.870350         1.366842
 C         3.687377         0.140357        -0.081467
 C         3.240816         0.327992        -1.455064
 O         1.768949         0.369133        -1.413979
 C         2.576551         0.324166         0.866424
 H        -0.077832         0.456222         1.370331
 H        -0.320158         1.049741        -0.434513
 H        -0.546560        -0.749213        -0.024030
 H         1.491099        -2.302773         0.778621
 H         2.084748        -2.250690        -1.066511
 H         3.596135        -2.197830         2.119439
 H         4.687068         0.563370         0.217770
 H         3.522567         1.367735        -1.873278
 H         3.741139        -0.461838        -2.176049
 H         2.620454         1.122760         1.649796
