19
Iteration:  3583
 C        -0.057204         0.096825         0.186348
 C         1.399833        -0.040471        -0.093424
 C         1.936260        -1.612826        -0.007255
 C         3.299252        -1.125209         0.564786
 O         4.131242        -1.917501         1.514902
 C         3.791515         0.133223        -0.126183
 C         3.206709         0.233772        -1.522178
 O         1.786070         0.591547        -1.344634
 C         2.600001         0.245528         0.853384
 H        -0.379148        -0.570194         1.045421
 H        -0.282301         1.152138         0.331831
 H        -0.580465        -0.002338        -0.761159
 H         1.597143        -2.044676         1.003335
 H         1.858099        -2.336603        -0.846782
 H         4.865186        -2.139904         0.911234
 H         4.759017         0.541101         0.175726
 H         3.522275         1.066019        -2.138241
 H         3.340647        -0.594986        -2.162986
 H         2.645503         0.731804         1.824008
