19
Iteration:   168
 C         0.033787         0.203367         0.314951
 C         1.484199        -0.180225        -0.150187
 C         1.988851        -1.816158         0.004503
 C         3.258746        -1.148905         0.540188
 O         3.925321        -1.769735         1.536274
 C         3.783446         0.081721        -0.140505
 C         3.255750         0.471477        -1.456507
 O         1.761766         0.358965        -1.474898
 C         2.642374         0.301922         0.752185
 H        -0.182067        -0.152859         1.360088
 H        -0.189163         1.348745         0.399195
 H        -0.748441        -0.138275        -0.391976
 H         1.387829        -2.239371         0.886997
 H         2.309225        -2.375108        -0.894027
 H         4.874458        -1.675278         1.548208
 H         4.697358         0.438073         0.250053
 H         3.480903         1.588449        -1.580417
 H         3.577337        -0.149087        -2.288431
 H         2.566211         0.713626         1.712122
