19
Iteration:   456
 C        -0.039335         0.136334         0.266549
 C         1.455638        -0.157338        -0.134747
 C         2.015599        -1.635234         0.027141
 C         3.279867        -1.115266         0.586191
 O         3.986479        -1.828734         1.447671
 C         3.760325         0.138728        -0.104328
 C         3.271068         0.327709        -1.471920
 O         1.838640         0.380275        -1.417736
 C         2.508508         0.347301         0.812858
 H        -0.145173         0.165838         1.326340
 H        -0.254593         1.130376        -0.047621
 H        -0.840124        -0.550451        -0.104040
 H         1.492089        -2.332027         0.858993
 H         2.225610        -2.250846        -0.917871
 H         4.920591        -1.917772         1.195614
 H         4.736639         0.508348         0.148862
 H         3.692838         1.288624        -1.896194
 H         3.628258        -0.397002        -2.246459
 H         2.455891         0.774491         1.787699
