19
Iteration:  1587
 C         0.037468         0.281730         0.285184
 C         1.402174        -0.211354        -0.098201
 C         1.942082        -1.696114         0.042908
 C         3.243715        -1.083554         0.700631
 O         4.130356        -1.839382         1.495985
 C         3.793431         0.133836        -0.237405
 C         3.237151         0.396250        -1.600847
 O         1.754081         0.323157        -1.454676
 C         2.586720         0.232538         0.820428
 H        -0.231105         0.029925         1.313588
 H         0.179565         1.347232         0.253893
 H        -0.653264        -0.272531        -0.354411
 H         1.444237        -2.420808         0.620698
 H         1.961224        -2.017808        -0.986325
 H         3.816845        -1.744662         2.412182
 H         4.860037         0.494066         0.003910
 H         3.544834         1.373080        -1.920459
 H         3.555885        -0.367001        -2.331232
 H         2.598586         0.941530         1.735696
