19
Iteration:  4143
 C         0.046557         0.102922         0.266321
 C         1.478431        -0.047443        -0.128102
 C         1.883276        -1.514708        -0.064608
 C         3.247973        -1.148550         0.649564
 O         4.108412        -1.876701         1.576067
 C         3.755923        -0.005014        -0.167200
 C         3.214701         0.293376        -1.538849
 O         1.752875         0.531715        -1.389872
 C         2.655646         0.276007         0.837769
 H        -0.092918        -0.302595         1.340073
 H        -0.413993         1.111513        -0.009017
 H        -0.632948        -0.579726        -0.364439
 H         1.233295        -2.135965         0.600604
 H         2.004955        -1.925867        -0.995405
 H         4.575351        -2.395455         0.896227
 H         4.756298         0.425595         0.220985
 H         3.563567         1.151134        -1.950328
 H         3.212204        -0.559046        -2.187631
 H         2.764659         1.008068         1.585422
