19
Iteration:  4128
 C         0.014453         0.258333         0.298590
 C         1.464675        -0.124014        -0.088537
 C         1.975689        -1.671683        -0.101825
 C         3.202972        -1.158138         0.662115
 O         4.087092        -1.878345         1.591369
 C         3.775303         0.056622        -0.161237
 C         3.171260         0.375423        -1.597783
 O         1.730657         0.456796        -1.424987
 C         2.643367         0.236798         0.844061
 H        -0.112449         0.299405         1.370408
 H        -0.082897         1.267395         0.084460
 H        -0.601048        -0.401418        -0.227650
 H         1.294163        -2.222128         0.559677
 H         2.110113        -2.122798        -1.188325
 H         4.919675        -2.238602         1.235132
 H         4.788795         0.312917        -0.067680
 H         3.590267         1.451930        -1.755707
 H         3.614753        -0.319458        -2.404920
 H         2.554697         0.786110         1.839757
