19
Iteration:   401charge 0 multiplicity 1
 C        -0.073046         0.044172         0.074149
 C         1.500997        -0.153517        -0.066867
 C         1.967213        -1.654558         0.040417
 C         3.244650        -1.087635         0.675669
 O         4.094141        -1.761206         1.509065
 C         3.815726         0.119163        -0.185040
 C         3.170019         0.279398        -1.554715
 O         1.784365         0.559299        -1.280735
 C         2.651956         0.264852         0.852309
 H        -0.629356        -0.221438         0.941004
 H        -0.213834         1.084286        -0.094157
 H        -0.462748        -0.394167        -0.912600
 H         1.638010        -2.389068         0.928130
 H         2.107315        -2.347498        -0.845632
 H         4.044950        -2.710403         1.232943
 H         4.784533         0.399486         0.142396
 H         3.554673         1.267738        -1.937953
 H         3.146136        -0.532561        -2.219461
 H         2.786910         1.094593         1.459081
