19
Iteration:  4461charge 0 multiplicity 1
 C        -0.015528         0.289201         0.038639
 C         1.428031        -0.117929        -0.044177
 C         1.953599        -1.635068         0.068648
 C         3.322676        -1.140069         0.673570
 O         4.184353        -1.967544         1.358707
 C         3.687548         0.103568        -0.059714
 C         3.124250         0.175149        -1.520135
 O         1.791583         0.535274        -1.305001
 C         2.604765         0.329580         0.906680
 H        -0.445705         0.304664         1.021441
 H        -0.209038         1.310083        -0.166527
 H        -0.668998        -0.328300        -0.644956
 H         1.336700        -2.341212         0.815897
 H         1.884806        -2.230560        -0.925681
 H         5.094578        -1.898062         1.056095
 H         4.626244         0.574494         0.066460
 H         3.722870         0.950551        -2.141066
 H         3.365878        -0.855412        -1.924368
 H         2.554379         1.126821         1.596351
