19
Iteration:  3736
 C         0.053579         0.160774         0.035454
 C         1.489028        -0.128567        -0.048926
 C         1.922656        -1.568635         0.154761
 C         3.225872        -1.073080         0.632544
 O         4.115394        -1.994991         1.237075
 C         3.719679         0.216269        -0.037319
 C         3.189438         0.296435        -1.539800
 O         1.804725         0.438795        -1.268609
 C         2.596241         0.309780         0.978316
 H        -0.537598        -0.419107         0.792518
 H        -0.012697         1.181155         0.235660
 H        -0.354490        -0.123153        -0.874163
 H         1.220525        -2.098787         0.925965
 H         1.911406        -2.331329        -0.692420
 H         4.955875        -1.902631         0.741996
 H         4.751150         0.441954         0.159495
 H         3.478743         1.151879        -2.249308
 H         3.129889        -0.699227        -2.181606
 H         2.518741         0.894418         1.919680
