19
Iteration:   891
 C        -0.055709         0.108875         0.132269
 C         1.497726        -0.128753        -0.113303
 C         1.938384        -1.563706        -0.014543
 C         3.228306        -1.119854         0.684539
 O         4.255858        -1.768310         1.338468
 C         3.744649         0.084793        -0.084191
 C         3.144840         0.184728        -1.533449
 O         1.782253         0.525950        -1.346661
 C         2.647142         0.291317         0.957281
 H        -0.487962        -0.569439         0.849215
 H        -0.262845         1.165508         0.297541
 H        -0.602813        -0.137386        -0.857145
 H         1.180103        -1.952293         0.719915
 H         1.713132        -2.308879        -0.854410
 H         3.913610        -2.004984         2.206489
 H         4.826743         0.311631         0.185333
 H         3.712052         0.767102        -2.271857
 H         3.307629        -0.786472        -2.059322
 H         2.498513         0.865795         1.936420
