19
Iteration:  1619
 C         0.048116         0.053704         0.150187
 C         1.472158        -0.038167        -0.109514
 C         1.932560        -1.598312         0.018746
 C         3.218782        -1.076932         0.722524
 O         4.160987        -1.770221         1.444144
 C         3.799058         0.047301        -0.231959
 C         3.141916         0.131611        -1.545950
 O         1.766870         0.601907        -1.313070
 C         2.644716         0.271673         0.849094
 H        -0.200384        -0.315500         1.129531
 H        -0.350617         1.011437        -0.072386
 H        -0.560201        -0.454502        -0.569835
 H         1.283965        -2.082329         0.703199
 H         1.936325        -2.244055        -0.845597
 H         3.686315        -2.197739         2.201755
 H         4.835870         0.491874        -0.061598
 H         3.549933         0.797931        -2.232934
 H         3.128431        -0.876859        -2.026609
 H         2.904410         0.837681         1.806980
