19
Iteration:  3746charge 0 multiplicity 1
 C         0.017298         0.201481         0.153184
 C         1.476804        -0.121677        -0.014126
 C         1.949494        -1.588911         0.055472
 C         3.247255        -1.050663         0.697797
 O         4.094383        -1.977706         1.278906
 C         3.793908         0.127994        -0.063457
 C         3.141277         0.312161        -1.556819
 O         1.790344         0.441039        -1.343757
 C         2.577875         0.269894         0.924677
 H        -0.411153        -0.566465         0.836162
 H        -0.304579         1.196038         0.220069
 H        -0.394723         0.001065        -0.800189
 H         1.429599        -2.055896         0.940956
 H         1.962520        -2.149158        -0.919214
 H         4.956886        -1.800965         0.861893
 H         4.721791         0.396460         0.338261
 H         3.583097         1.188445        -2.182605
 H         3.599791        -0.598902        -2.051794
 H         2.391708         0.921636         1.804596
