19
Iteration:   136charge 0 multiplicity 1
 C         0.029166         0.066378         0.125046
 C         1.533841        -0.055420        -0.096775
 C         1.883179        -1.518167         0.010056
 C         3.249215        -1.112079         0.729824
 O         4.107744        -1.948497         1.479197
 C         3.725418         0.201692        -0.120754
 C         3.195779         0.297515        -1.564712
 O         1.784032         0.391348        -1.365918
 C         2.621827         0.343664         0.888969
 H        -0.311547        -0.258415         1.163636
 H        -0.398239         1.154558        -0.014884
 H        -0.568379        -0.651899        -0.541717
 H         1.105826        -2.120570         0.538530
 H         2.000964        -2.124992        -0.876242
 H         4.895887        -2.231470         0.960822
 H         4.625126         0.623791         0.271248
 H         3.592543         1.184469        -2.182973
 H         3.519248        -0.591406        -2.136226
 H         2.550366         0.999827         1.720407
