19
Iteration:   761charge 0 multiplicity 1
 C         0.033280         0.168154         0.137973
 C         1.484865        -0.205189        -0.090685
 C         1.992770        -1.664632        -0.006252
 C         3.227583        -1.119879         0.607793
 O         4.110325        -1.817750         1.475832
 C         3.766041         0.098293        -0.198630
 C         3.197049         0.386516        -1.499105
 O         1.711730         0.427828        -1.333763
 C         2.694631         0.251243         0.828236
 H        -0.410208         0.003944         1.153425
 H        -0.190966         1.269376         0.044739
 H        -0.770661        -0.449301        -0.512618
 H         1.455776        -2.055851         0.804361
 H         2.055645        -2.257007        -0.855604
 H         3.751771        -1.936279         2.372818
 H         4.734354         0.480300         0.046419
 H         3.395365         1.440387        -1.770242
 H         3.493568        -0.369949        -2.234651
 H         2.723562         0.886801         1.688702
