19
Iteration:   212
 C         0.076087         0.262522         0.285522
 C         1.470527        -0.174836        -0.135426
 C         2.037936        -1.710245        -0.085004
 C         3.216379        -1.180513         0.645947
 O         4.026446        -1.865220         1.594353
 C         3.761911         0.109853        -0.136521
 C         3.191913         0.466821        -1.526571
 O         1.741680         0.319147        -1.476908
 C         2.566670         0.287372         0.804796
 H        -0.316296        -0.199399         1.204841
 H        -0.039546         1.367132         0.475953
 H        -0.650730         0.043322        -0.492924
 H         1.452511        -2.482112         0.599402
 H         2.193444        -2.242769        -1.044501
 H         4.851988        -1.381623         1.555671
 H         4.729965         0.363884         0.228515
 H         3.445156         1.538978        -1.664461
 H         3.700541        -0.143620        -2.249782
 H         2.618478         0.881945         1.640716
