19
Iteration:   633
 C         0.022606         0.179079         0.224072
 C         1.507382        -0.222842        -0.172794
 C         1.847783        -1.709456         0.042673
 C         3.192506        -1.175456         0.596443
 O         4.110157        -1.757019         1.525392
 C         3.807864         0.031465        -0.220482
 C         3.271943         0.661257        -1.470073
 O         1.814991         0.306619        -1.393122
 C         2.609549         0.161760         0.761180
 H         0.083458         0.256742         1.308644
 H        -0.325318         1.183362        -0.066189
 H        -0.806705        -0.457787        -0.061515
 H         1.497147        -2.426794         0.920154
 H         1.752904        -2.278893        -0.979122
 H         3.788747        -1.764428         2.442076
 H         4.752925         0.334809         0.135245
 H         3.413859         1.822247        -1.409764
 H         3.452999         0.186970        -2.585899
 H         2.619338         0.981529         1.407469
