19
Iteration:  2868
 C         0.094594         0.091590         0.329710
 C         1.503764        -0.064036        -0.112800
 C         1.951882        -1.588242        -0.098878
 C         3.211944        -1.110931         0.678760
 O         4.140734        -1.899202         1.453546
 C         3.743386         0.176134        -0.118286
 C         3.191513         0.223899        -1.587504
 O         1.765747         0.471944        -1.450407
 C         2.589675         0.375992         0.906097
 H         0.203920        -0.285670         1.367081
 H        -0.279681         1.095055         0.372628
 H        -0.674260        -0.583365        -0.329164
 H         1.226144        -2.335832         0.306113
 H         2.135239        -2.088293        -1.136016
 H         3.537800        -2.455163         1.970569
 H         4.835577         0.434565         0.230208
 H         3.578776         1.177838        -2.081288
 H         3.232856        -0.811829        -2.004420
 H         2.406027         1.194907         1.651984
