19
Iteration:  3529
 C        -0.004646         0.350017         0.225898
 C         1.394222        -0.179254        -0.148003
 C         1.924223        -1.614119         0.059856
 C         3.268478        -1.143933         0.591730
 O         4.140044        -1.941234         1.348229
 C         3.713001         0.165058        -0.053776
 C         3.269099         0.524042        -1.404651
 O         1.804637         0.131165        -1.468138
 C         2.570522         0.253436         0.899963
 H        -0.189712         0.317225         1.372607
 H         0.057846         1.399326        -0.196492
 H        -0.894726        -0.240552        -0.097759
 H         1.372920        -2.208609         0.838673
 H         1.880222        -2.248997        -0.746514
 H         4.989777        -1.824104         0.906311
 H         4.690398         0.454264         0.431790
 H         3.109626         1.592204        -1.595727
 H         3.820194         0.122415        -2.322159
 H         2.569081         1.066484         1.637722
