19
Iteration:  1521charge 0 multiplicity 1
 C         0.044135         0.304996         0.124972
 C         1.468337        -0.109427        -0.086315
 C         1.864722        -1.666905         0.189640
 C         3.275904        -1.152753         0.625528
 O         4.212673        -1.823069         1.445574
 C         3.739958         0.091545        -0.185321
 C         3.183801         0.455644        -1.522501
 O         1.755586         0.238430        -1.463799
 C         2.638639         0.292524         0.881360
 H        -0.382967        -0.076059         1.084468
 H        -0.269815         1.349898         0.073361
 H        -0.634952        -0.272385        -0.516023
 H         1.377104        -2.095702         1.025875
 H         1.781492        -2.320224        -0.652144
 H         3.791502        -2.668783         1.707757
 H         4.800544         0.229454        -0.019382
 H         3.477361         1.539827        -1.773784
 H         3.554693        -0.231796        -2.307316
 H         2.575989         1.060847         1.703369
