19
Iteration:  2813
 C         0.021960         0.218718         0.085127
 C         1.482273        -0.169056        -0.037304
 C         1.828385        -1.603141         0.110888
 C         3.224390        -1.149365         0.631882
 O         4.268020        -1.819387         1.350555
 C         3.719363         0.122220        -0.124496
 C         3.139468         0.393294        -1.476309
 O         1.742073         0.336719        -1.363061
 C         2.710419         0.247818         0.860732
 H        -0.450223        -0.136539         0.998313
 H        -0.120893         1.286263        -0.081442
 H        -0.485601        -0.099880        -0.970878
 H         1.238382        -1.996852         0.953582
 H         1.749041        -2.269272        -0.800080
 H         3.931478        -2.307641         2.128108
 H         4.788730         0.288044         0.242274
 H         3.506009         1.391291        -1.912697
 H         3.578845        -0.191994        -2.333747
 H         2.734497         0.781660         1.736030
