19
Iteration:   398charge 0 multiplicity 1
 C        -0.093475         0.047958         0.079234
 C         1.474164        -0.161269        -0.069507
 C         1.959973        -1.658439         0.053827
 C         3.255243        -1.071369         0.662903
 O         4.090524        -1.774943         1.531744
 C         3.816069         0.124673        -0.183634
 C         3.195436         0.315099        -1.559127
 O         1.794853         0.544552        -1.275080
 C         2.661635         0.235588         0.804950
 H        -0.614901        -0.312723         0.967439
 H        -0.188709         1.117491         0.000151
 H        -0.489657        -0.312983        -0.811955
 H         1.536103        -2.383177         0.896518
 H         2.098466        -2.324991        -0.844514
 H         4.057983        -2.717731         1.309701
 H         4.843316         0.550604         0.048089
 H         3.505916         1.267049        -1.925485
 H         3.206839        -0.557295        -2.284041
 H         2.793143         1.134165         1.451444
