19
Iteration:  1670
 C         0.065548         0.177450         0.236264
 C         1.484490        -0.179578        -0.138230
 C         1.977527        -1.604608         0.110671
 C         3.252314        -1.048171         0.730804
 O         4.082568        -1.878201         1.379932
 C         3.783341         0.150214        -0.120647
 C         3.176959         0.359866        -1.592053
 O         1.750562         0.303960        -1.460570
 C         2.666477         0.349743         0.868104
 H        -0.154057        -0.151556         1.309146
 H        -0.181556         1.263566         0.186369
 H        -0.729084        -0.160604        -0.385677
 H         1.239444        -2.100094         0.869751
 H         2.016935        -2.261133        -0.807149
 H         3.525052        -2.457047         1.943946
 H         4.831372         0.362451         0.094819
 H         3.495013         1.327569        -2.088492
 H         3.478306        -0.460590        -2.286682
 H         2.416599         1.115056         1.675945
