19
Iteration:  2906charge 0 multiplicity 1
 C         0.053681         0.190627         0.371791
 C         1.444793        -0.203245        -0.147317
 C         1.930732        -1.754143        -0.075995
 C         3.290819        -1.143079         0.521418
 O         4.050861        -1.772800         1.561373
 C         3.830349         0.067983        -0.168292
 C         3.183993         0.445976        -1.527526
 O         1.771223         0.429822        -1.341679
 C         2.677943         0.239653         0.707562
 H        -0.102437        -0.269692         1.405119
 H        -0.277748         1.327826         0.314560
 H        -0.677683        -0.187243        -0.356569
 H         1.564537        -2.368579         0.722011
 H         1.851520        -2.210808        -1.025351
 H         3.360775        -1.940495         2.233785
 H         4.835243         0.291937         0.141387
 H         3.455812         1.447908        -1.740469
 H         3.496656        -0.012969        -2.439562
 H         2.539306         1.032256         1.414328
