19
Iteration:   200charge 0 multiplicity 1
 C         0.124244         0.248653         0.302471
 C         1.477937        -0.207703        -0.104021
 C         1.931084        -1.761615        -0.078065
 C         3.274853        -1.145498         0.653273
 O         4.016821        -1.815567         1.641838
 C         3.678573         0.072038        -0.152011
 C         3.208540         0.542415        -1.549667
 O         1.764276         0.317772        -1.544691
 C         2.629221         0.179922         0.847413
 H        -0.104354        -0.237182         1.230619
 H         0.317440         1.342434         0.434678
 H        -0.546656         0.085163        -0.431084
 H         1.031002        -2.375537         0.345216
 H         2.222614        -1.969487        -1.142381
 H         4.930284        -1.475943         1.798603
 H         4.504941         0.691659         0.062878
 H         3.434164         1.597622        -1.698518
 H         3.492638         0.031776        -2.431574
 H         2.461459         0.870907         1.613002
