19
Iteration:  4217charge 0 multiplicity 1
 C         0.052627         0.322230         0.269599
 C         1.413645        -0.192696        -0.074611
 C         1.967897        -1.677212        -0.037323
 C         3.186056        -1.166986         0.687893
 O         4.110728        -1.778387         1.534277
 C         3.798192        -0.000676        -0.186252
 C         3.214674         0.465901        -1.554661
 O         1.781105         0.339781        -1.447842
 C         2.618152         0.244745         0.833176
 H        -0.368650        -0.126517         1.248469
 H         0.108475         1.368667         0.515496
 H        -0.717449         0.166865        -0.426915
 H         1.292167        -2.331323         0.608901
 H         2.233072        -2.018447        -1.145201
 H         4.282123        -2.644198         1.101860
 H         4.839767         0.325041         0.245141
 H         3.363041         1.604193        -1.760718
 H         3.378040        -0.292213        -2.394149
 H         2.447554         0.770316         1.738989
