19
Iteration:  3201charge 0 multiplicity 1
 C         0.048102         0.183798         0.386667
 C         1.482382        -0.177003        -0.114173
 C         1.982905        -1.662824        -0.085625
 C         3.262240        -1.133738         0.544486
 O         3.983763        -1.836334         1.495817
 C         3.800301         0.231910        -0.102847
 C         3.252019         0.504214        -1.539697
 O         1.822187         0.308506        -1.432695
 C         2.561046         0.181217         0.845118
 H        -0.146594        -0.023014         1.433717
 H         0.003008         1.297030         0.209347
 H        -0.694733        -0.368407        -0.108467
 H         1.452163        -2.313387         0.735194
 H         1.840637        -2.215967        -1.065997
 H         4.121101        -2.731497         1.138456
 H         4.641848         0.800877         0.326190
 H         3.423413         1.609689        -1.940616
 H         3.587247        -0.264077        -2.310621
 H         2.351836         0.871293         1.731095
