19
Iteration:  1917charge 0 multiplicity 1
 C        -0.035488         0.216251         0.108482
 C         1.431356        -0.088504         0.023472
 C         1.927342        -1.628562         0.171681
 C         3.230070        -1.075446         0.646813
 O         4.192195        -1.845444         1.222774
 C         3.716693         0.115105        -0.097026
 C         3.244853         0.327052        -1.554904
 O         1.856823         0.296347        -1.404173
 C         2.587608         0.315668         0.940923
 H        -0.381245        -0.098015         1.126589
 H        -0.215106         1.336587        -0.022936
 H        -0.845660        -0.126610        -0.527947
 H         1.282500        -2.041111         1.046839
 H         1.804435        -2.373856        -0.720836
 H         3.850669        -2.343060         1.989893
 H         4.809214         0.301664        -0.008136
 H         3.628222         1.210088        -2.053977
 H         3.640970        -0.588584        -2.208477
 H         2.562301         1.079674         1.768162
