19
Iteration:  2270
 C        -0.020777         0.271069         0.118142
 C         1.429438        -0.209192        -0.052342
 C         1.898986        -1.667444         0.096698
 C         3.248247        -1.057659         0.659322
 O         4.217596        -1.858984         1.397415
 C         3.726225         0.024244        -0.151143
 C         3.194895         0.325107        -1.535272
 O         1.793075         0.450728        -1.301140
 C         2.578301         0.271130         0.874333
 H        -0.390041         0.161657         1.129734
 H        -0.023858         1.290196        -0.225744
 H        -0.677529        -0.433526        -0.555879
 H         1.275190        -2.031405         0.893662
 H         1.937865        -2.234643        -0.866119
 H         4.807841        -2.088393         0.663945
 H         4.654543         0.306190         0.114624
 H         3.626237         1.270169        -1.823147
 H         3.460286        -0.522492        -2.156874
 H         2.635931         1.076301         1.544504
