19
Iteration:   666
 C         0.109836         0.270954         0.244818
 C         1.439114        -0.120300        -0.161209
 C         1.991567        -1.696829        -0.053919
 C         3.285025        -1.136340         0.610517
 O         4.107330        -1.800460         1.496076
 C         3.740887         0.143083        -0.074544
 C         3.180226         0.493486        -1.483713
 O         1.724074         0.217352        -1.479056
 C         2.592707         0.226476         0.845302
 H        -0.131264        -0.136884         1.238763
 H         0.055864         1.356528         0.436724
 H        -0.672518         0.002182        -0.415963
 H         1.601849        -2.457606         0.755357
 H         1.974987        -2.198291        -1.106367
 H         3.550537        -2.193570         2.212937
 H         4.761561         0.342185         0.168789
 H         3.510171         1.538240        -1.727871
 H         3.782846        -0.158438        -2.292150
 H         2.333281         0.814621         1.689431
