19
Iteration:   960
 C         0.110277         0.196527         0.335935
 C         1.473109        -0.237771        -0.142842
 C         1.950009        -1.680678        -0.035790
 C         3.292780        -1.139824         0.571047
 O         4.008471        -1.821144         1.581646
 C         3.775623         0.094556        -0.200014
 C         3.149959         0.635046        -1.517771
 O         1.811102         0.211486        -1.493344
 C         2.686350         0.259204         0.828497
 H         0.080625         0.263694         1.493902
 H        -0.156450         1.234101        -0.091209
 H        -0.841564        -0.353467         0.084003
 H         1.358249        -2.092907         0.787709
 H         1.922565        -2.373472        -0.841424
 H         3.302359        -2.318350         2.031553
 H         4.718148         0.528710        -0.019461
 H         3.168390         1.726159        -1.655452
 H         3.489589         0.378870        -2.505783
 H         2.736545         0.974217         1.595244
