19
Iteration:   852charge 0 multiplicity 1
 C        -0.096150         0.129371         0.038174
 C         1.412499        -0.160949        -0.006480
 C         1.987459        -1.603328         0.072692
 C         3.329462        -1.090073         0.669121
 O         4.195463        -1.884624         1.421882
 C         3.809419         0.049013        -0.107482
 C         3.117976         0.294763        -1.607772
 O         1.759141         0.506624        -1.367071
 C         2.654154         0.358043         0.871170
 H        -0.505975        -0.415543         0.980804
 H        -0.156454         1.215618         0.375125
 H        -0.493181        -0.290780        -0.922236
 H         1.539041        -2.032969         0.981844
 H         1.981733        -2.256314        -0.778434
 H         3.747406        -2.326392         2.188425
 H         4.824847         0.362084         0.089773
 H         3.512250         1.318757        -1.912638
 H         3.266739        -0.534607        -2.355376
 H         2.579387         1.040558         1.686622
