19
Iteration:   568charge 0 multiplicity 1
 C        -0.038976         0.134697         0.165647
 C         1.345478        -0.170783        -0.089108
 C         2.079248        -1.563947         0.016732
 C         3.269573        -1.082265         0.695571
 O         4.191244        -1.852920         1.335545
 C         3.733712         0.142410        -0.030574
 C         3.217659         0.129871        -1.447527
 O         1.787724         0.522817        -1.434150
 C         2.535506         0.395852         0.884560
 H        -0.358626        -0.213751         1.147580
 H        -0.200385         1.236160         0.108971
 H        -0.509390        -0.317916        -0.661836
 H         1.492192        -2.253829         0.728694
 H         2.014431        -2.125590        -0.991593
 H         3.859519        -2.773757         1.464161
 H         4.687914         0.623756         0.134724
 H         3.903928         0.776807        -2.103500
 H         3.318387        -0.912586        -1.870692
 H         2.566392         1.173628         1.644431
