19
Iteration:  3014charge 0 multiplicity 1
 C        -0.054830         0.133548         0.183774
 C         1.473349        -0.161179        -0.045422
 C         1.988943        -1.609851        -0.040769
 C         3.258627        -1.076205         0.665763
 O         4.123240        -1.946275         1.405005
 C         3.724815         0.066175        -0.202148
 C         3.201695         0.347928        -1.571970
 O         1.819571         0.492014        -1.318520
 C         2.567424         0.294360         0.897494
 H        -0.391258         0.011574         1.231782
 H        -0.042114         1.217411         0.093752
 H        -0.721425        -0.529563        -0.289613
 H         1.338425        -2.269824         0.566085
 H         2.059307        -2.035659        -1.004956
 H         4.420732        -1.413326         2.173997
 H         4.777529         0.311865         0.145547
 H         3.697315         1.255040        -1.928492
 H         3.498325        -0.572371        -2.175661
 H         2.499090         1.102041         1.527532
