19
Iteration:  2136charge 0 multiplicity 1
 C         0.141311         0.146192         0.350218
 C         1.507965        -0.115088        -0.131834
 C         1.938700        -1.624405        -0.129986
 C         3.215731        -1.138007         0.612541
 O         3.957479        -1.813346         1.605086
 C         3.798760         0.080236        -0.210456
 C         3.208736         0.413313        -1.565436
 O         1.728120         0.395783        -1.384464
 C         2.668871         0.279063         0.842633
 H        -0.162259        -0.185215         1.381564
 H        -0.212103         1.203723         0.329080
 H        -0.519569        -0.446011        -0.299959
 H         1.480933        -2.225931         0.703328
 H         2.042158        -2.235376        -1.040789
 H         4.488433        -2.457308         1.117650
 H         4.836782         0.381692         0.068672
 H         3.468149         1.407708        -2.043281
 H         3.489144        -0.388906        -2.276865
 H         2.493321         0.885869         1.689903
