19
Iteration:  3464
 C        -0.030435         0.140503         0.258219
 C         1.457484        -0.070758        -0.087327
 C         2.005277        -1.562790        -0.070187
 C         3.264629        -1.158319         0.626593
 O         4.101137        -1.854534         1.593427
 C         3.745567         0.038656        -0.153129
 C         3.182981         0.343739        -1.554513
 O         1.724561         0.480270        -1.390290
 C         2.634179         0.215750         0.832159
 H        -0.373380        -0.487780         1.183347
 H        -0.219919         1.255629         0.234150
 H        -0.724825        -0.187434        -0.581391
 H         1.383094        -2.238651         0.574732
 H         2.180860        -1.993202        -1.005496
 H         4.821028        -2.257752         1.055857
 H         4.853717         0.378857         0.023819
 H         3.617207         1.302244        -1.846970
 H         3.584466        -0.229245        -2.466758
 H         2.685109         0.836621         1.733003
