19
Iteration:   878
 C        -0.035932         0.097152        -0.029307
 C         1.403582        -0.091162        -0.080843
 C         1.888177        -1.635593         0.079379
 C         3.244329        -1.069363         0.685512
 O         4.267700        -1.819222         1.340135
 C         3.712097         0.091930        -0.132192
 C         3.125574         0.145326        -1.537456
 O         1.816236         0.583385        -1.270050
 C         2.668349         0.287512         0.944676
 H        -0.348602        -0.523502         0.725146
 H        -0.196162         1.019172         0.409902
 H        -0.538868        -0.091188        -0.940745
 H         1.371755        -2.277676         0.866727
 H         2.142773        -2.119981        -0.938508
 H         4.066007        -2.029151         2.289545
 H         4.746705         0.490918        -0.009990
 H         3.519049         0.959740        -2.057222
 H         3.065067        -0.854628        -1.993077
 H         2.901340         1.049857         1.735586
