19
Iteration:   100
 C        -0.118489         0.129375         0.076778
 C         1.403926        -0.171355        -0.096860
 C         1.980555        -1.611643         0.056399
 C         3.252918        -1.085933         0.649504
 O         4.131282        -1.785042         1.448898
 C         3.767087         0.110014        -0.137105
 C         3.237092         0.206155        -1.592344
 O         1.878611         0.526611        -1.213440
 C         2.573987         0.239954         0.869147
 H        -0.404361        -0.119899         1.087320
 H        -0.238902         1.213013        -0.130119
 H        -0.606223        -0.400500        -0.645728
 H         1.286123        -1.976478         0.818135
 H         2.187430        -2.222770        -0.879070
 H         4.464918        -2.543718         0.924300
 H         4.700193         0.702528         0.159609
 H         3.498342         1.078204        -2.160517
 H         3.376250        -0.686557        -2.218323
 H         2.557414         1.048434         1.748975
