19
Iteration:  4008charge 0 multiplicity 1
 C        -0.027566         0.109276         0.192882
 C         1.439453        -0.103446        -0.034766
 C         1.971213        -1.565665        -0.089398
 C         3.316890        -1.111552         0.607761
 O         4.114529        -1.883875         1.537314
 C         3.763556         0.094745        -0.149142
 C         3.164962         0.214610        -1.595638
 O         1.777666         0.619099        -1.306577
 C         2.628968         0.251035         0.869845
 H        -0.380938        -0.133678         1.307768
 H        -0.247229         1.210634         0.135032
 H        -0.537725        -0.382713        -0.659201
 H         1.450072        -2.124312         0.646778
 H         2.043223        -1.944317        -1.088992
 H         4.275255        -2.774437         1.159629
 H         4.754089         0.467098        -0.023925
 H         3.548110         0.968824        -2.205646
 H         3.202425        -0.813813        -1.962515
 H         2.670842         0.856543         1.756260
