19
Iteration:  3207
 C         0.066988         0.208985         0.420184
 C         1.465642        -0.213643        -0.109617
 C         1.971263        -1.700723        -0.121968
 C         3.272212        -1.102340         0.559566
 O         3.998401        -1.855892         1.549811
 C         3.744255         0.207121        -0.097475
 C         3.246253         0.517304        -1.538844
 O         1.798309         0.354024        -1.495942
 C         2.600419         0.192955         0.850776
 H        -0.081040        -0.162153         1.465422
 H        -0.081229         1.259736         0.251433
 H        -0.782156        -0.310261        -0.180683
 H         1.409587        -2.231077         0.621288
 H         2.029787        -2.169619        -1.092985
 H         4.156449        -2.793204         1.312130
 H         4.651077         0.860436         0.199817
 H         3.457891         1.387687        -2.075915
 H         3.714370        -0.101008        -2.299526
 H         2.513555         0.723389         1.752274
