19
Iteration:  1767
 C        -0.091570         0.147498         0.174354
 C         1.422919        -0.087213        -0.050411
 C         1.994120        -1.596045         0.163126
 C         3.286093        -1.069080         0.616953
 O         4.106588        -1.915732         1.369783
 C         3.780291         0.165059        -0.146127
 C         3.233725         0.269217        -1.560595
 O         1.807583         0.364815        -1.446605
 C         2.651337         0.386708         0.868318
 H        -0.369107        -0.225673         1.212736
 H        -0.466847         1.155780         0.454673
 H        -0.649700        -0.412249        -0.559685
 H         1.514770        -2.104971         0.967839
 H         2.055125        -2.125968        -0.767075
 H         3.437102        -2.446789         1.837906
 H         4.841326         0.477887        -0.036119
 H         3.534971         1.256619        -2.046281
 H         3.575024        -0.574911        -2.114982
 H         2.724967         0.973876         1.851459
