19
Iteration:  1796charge 0 multiplicity 1
 C         0.089774         0.004499         0.245551
 C         1.496003        -0.055958        -0.114381
 C         1.966346        -1.515199        -0.034404
 C         3.178827        -1.009023         0.670208
 O         4.124926        -1.853318         1.379682
 C         3.726530         0.116354        -0.102958
 C         3.219607         0.057547        -1.500042
 O         1.802852         0.510442        -1.338731
 C         2.603702         0.444978         0.826514
 H        -0.107623        -0.478838         1.270667
 H        -0.341818         1.098446         0.453011
 H        -0.686769        -0.508934        -0.454811
 H         1.189318        -2.088620         0.590361
 H         2.064728        -1.982392        -1.084160
 H         3.614287        -2.615101         1.743634
 H         4.713466         0.465377        -0.078399
 H         3.599638         0.726002        -2.229294
 H         3.318885        -0.977453        -2.059321
 H         2.571375         1.093647         1.674575
