19
Iteration:  1045charge 0 multiplicity 1
 C        -0.084211         0.148746         0.142492
 C         1.432842        -0.154316        -0.106739
 C         2.046893        -1.523462         0.061195
 C         3.286506        -1.024251         0.684726
 O         4.173623        -1.840269         1.349491
 C         3.745568         0.161055        -0.094167
 C         3.194253         0.185443        -1.529027
 O         1.753461         0.430093        -1.316494
 C         2.597407         0.298939         0.886506
 H        -0.385212        -0.652178         0.775199
 H        -0.145848         1.137792         0.507482
 H        -0.494560         0.236862        -0.863715
 H         1.452852        -2.212475         0.762211
 H         2.186932        -2.140452        -0.947325
 H         3.735403        -2.699199         1.554752
 H         4.771409         0.424177         0.051300
 H         3.728852         0.934999        -2.209349
 H         3.360804        -0.857979        -1.976226
 H         2.469104         1.045505         1.648810
