19
Iteration:  2114charge 0 multiplicity 1
 C         0.060046         0.078788         0.184761
 C         1.478047        -0.147842        -0.123393
 C         1.938619        -1.578878         0.133832
 C         3.225615        -1.109646         0.682408
 O         4.064728        -1.912949         1.412046
 C         3.722366         0.113217        -0.127320
 C         3.200348         0.292694        -1.598362
 O         1.796551         0.502832        -1.386044
 C         2.653370         0.411394         0.907294
 H        -0.362795        -0.191027         1.191209
 H        -0.322077         1.127413         0.154933
 H        -0.564194        -0.490503        -0.490082
 H         1.266463        -2.128748         0.882890
 H         2.069053        -2.223842        -0.780962
 H         4.320020        -2.617734         0.768673
 H         4.693311         0.538423         0.132109
 H         3.701779         1.174422        -2.106927
 H         3.453752        -0.599620        -2.237075
 H         2.764089         1.013739         1.729772
