19
Iteration:  1067
 C         0.023578         0.111625         0.263327
 C         1.508256        -0.081551        -0.051266
 C         1.935177        -1.694843         0.006225
 C         3.240283        -1.122490         0.618276
 O         4.124848        -1.790192         1.522293
 C         3.704634         0.117386        -0.160429
 C         3.201668         0.406900        -1.574042
 O         1.778703         0.358966        -1.464405
 C         2.632911         0.318362         0.867479
 H        -0.184599        -0.693119         0.976058
 H        -0.101932         1.128768         0.585369
 H        -0.434776         0.108830        -0.737673
 H         1.283632        -2.187685         0.819355
 H         1.762707        -2.338317        -0.967292
 H         3.740083        -2.671516         1.601954
 H         4.696110         0.501756         0.117317
 H         3.556523         1.459325        -1.929558
 H         3.623302        -0.361911        -2.329814
 H         2.787502         1.043162         1.670975
