19
Iteration:  4160charge 0 multiplicity 1
 C        -0.011890        -0.008790         0.228729
 C         1.481235        -0.034550        -0.037950
 C         1.954093        -1.586705         0.033107
 C         3.187556        -1.069774         0.612375
 O         3.987067        -1.825007         1.430849
 C         3.784903         0.080665        -0.178881
 C         3.205664         0.182764        -1.562098
 O         1.872071         0.616508        -1.315165
 C         2.699987         0.329229         0.867804
 H        -0.235428        -0.521249         1.141881
 H        -0.443115         0.961666         0.272875
 H        -0.595917        -0.549975        -0.489797
 H         1.318253        -2.138250         0.732977
 H         1.847525        -2.377095        -0.870955
 H         4.272833        -2.646214         0.988467
 H         4.798631         0.278235         0.045832
 H         3.776865         0.981576        -2.280238
 H         3.290580        -0.745561        -2.254308
 H         2.747449         1.147680         1.679840
