19
Iteration:  1275charge 0 multiplicity 1
 C         0.080900         0.159288         0.457817
 C         1.466979        -0.210529        -0.114337
 C         1.962749        -1.743667        -0.089921
 C         3.199606        -1.117724         0.595768
 O         4.017854        -1.734970         1.540607
 C         3.828465         0.046215        -0.147545
 C         3.285628         0.470716        -1.609723
 O         1.752260         0.406360        -1.552386
 C         2.601498         0.247896         0.844363
 H         0.024224        -0.126064         1.586066
 H        -0.222428         1.236815         0.295548
 H        -0.773759        -0.199243        -0.177951
 H         1.488329        -2.421608         0.582527
 H         2.002789        -2.201117        -1.032958
 H         3.534949        -1.744772         2.399595
 H         4.808129         0.096104         0.235949
 H         3.780458         1.431194        -1.775101
 H         3.519025        -0.202297        -2.473991
 H         2.548183         0.912675         1.667849
