19
Iteration:  3443
 C         0.070530         0.099306         0.269770
 C         1.487754        -0.168469        -0.129655
 C         1.965761        -1.712786        -0.137127
 C         3.184192        -1.087782         0.647602
 O         4.082155        -1.762096         1.520488
 C         3.768217         0.112436        -0.140388
 C         3.131362         0.226658        -1.534160
 O         1.814364         0.635169        -1.327093
 C         2.607467         0.233159         0.886105
 H        -0.191641        -0.649854         1.105707
 H        -0.117346         1.151629         0.520649
 H        -0.602951         0.026195        -0.605925
 H         1.327496        -2.339141         0.525065
 H         2.160666        -2.072002        -1.132550
 H         4.442839        -2.519192         1.029727
 H         4.731416         0.667944         0.194403
 H         3.506613         0.881537        -2.315594
 H         3.412599        -0.765319        -2.073895
 H         2.542556         0.982023         1.688215
