19
Iteration:  4460charge 0 multiplicity 1
 C        -0.009264         0.290031         0.036577
 C         1.414062        -0.116878        -0.040970
 C         1.943182        -1.635697         0.064615
 C         3.321404        -1.143544         0.675274
 O         4.192363        -1.973071         1.362578
 C         3.691470         0.102647        -0.063018
 C         3.127810         0.182012        -1.515753
 O         1.792584         0.530405        -1.307556
 C         2.601268         0.333993         0.900710
 H        -0.444303         0.327853         1.068226
 H        -0.203710         1.327837        -0.155529
 H        -0.644877        -0.369127        -0.641251
 H         1.356611        -2.339327         0.824471
 H         1.905193        -2.215066        -0.938921
 H         5.103233        -1.899361         1.072288
 H         4.605752         0.560524         0.055672
 H         3.708198         0.929573        -2.100367
 H         3.370708        -0.806136        -1.952378
 H         2.545489         1.164408         1.572958
