19
Iteration:  4234
 C         0.166838         0.345108         0.347673
 C         1.480925        -0.218900        -0.156083
 C         1.880517        -1.780146        -0.029611
 C         3.173462        -1.184548         0.550007
 O         4.030636        -1.691261         1.498251
 C         3.714206         0.072661        -0.138314
 C         3.252580         0.485798        -1.480156
 O         1.796404         0.289866        -1.418690
 C         2.594976         0.197244         0.838040
 H        -0.125664        -0.117423         1.272195
 H         0.169919         1.483060         0.139758
 H        -0.727572         0.123074        -0.346236
 H         1.291109        -2.297142         0.693098
 H         1.890647        -2.405770        -0.869123
 H         4.667339        -2.295136         1.070572
 H         4.721398         0.275794         0.024513
 H         3.395010         1.542592        -1.520601
 H         3.744631        -0.050551        -2.275094
 H         2.713714         0.903732         1.726551
