19
Iteration:   430
 C        -0.036870         0.045285         0.094208
 C         1.470982        -0.065788        -0.124893
 C         1.889866        -1.531981        -0.020129
 C         3.220907        -1.135845         0.748751
 O         4.205327        -1.832321         1.492131
 C         3.724747         0.220625        -0.128547
 C         3.177099         0.199521        -1.508328
 O         1.815548         0.498200        -1.359691
 C         2.626430         0.249676         0.908747
 H        -0.351187         0.055237         1.162697
 H        -0.417559         0.998667        -0.311917
 H        -0.528698        -0.737549        -0.415903
 H         1.272607        -2.189352         0.604086
 H         2.068692        -1.993907        -0.989403
 H         4.517147        -2.510737         0.876031
 H         4.726016         0.627212         0.154741
 H         3.650246         0.946612        -2.131634
 H         3.351859        -0.769748        -2.152189
 H         2.642711         0.902010         1.823936
