19
Iteration:  2599
 C        -0.026184         0.357088         0.242911
 C         1.437582        -0.190153        -0.074985
 C         1.943527        -1.699320         0.048151
 C         3.290790        -1.220953         0.575376
 O         4.148566        -1.769628         1.506756
 C         3.760342         0.081498        -0.224751
 C         3.155917         0.497094        -1.511944
 O         1.800019         0.242407        -1.441283
 C         2.648788         0.283026         0.817586
 H        -0.278444         0.064291         1.267700
 H        -0.247719         1.393062         0.048531
 H        -0.644872        -0.334776        -0.236474
 H         1.448584        -2.140780         0.926447
 H         1.933688        -2.379276        -0.852887
 H         3.834183        -2.569953         1.978913
 H         4.638586         0.473647         0.169630
 H         3.431730         1.595756        -1.737601
 H         3.661619         0.008190        -2.406751
 H         2.662326         0.772630         1.687315
