19
Iteration:  1968charge 0 multiplicity 1
 C         0.017698         0.162414         0.320659
 C         1.411720        -0.083794        -0.149387
 C         2.050426        -1.651613        -0.024833
 C         3.300917        -1.105232         0.691678
 O         4.061744        -1.819641         1.621580
 C         3.764955         0.051515        -0.231882
 C         3.173583         0.234067        -1.686784
 O         1.747199         0.578561        -1.385198
 C         2.628082         0.235047         0.830342
 H        -0.187180        -0.240884         1.276711
 H        -0.433995         1.139668         0.239916
 H        -0.572542        -0.491710        -0.359693
 H         1.402036        -2.153130         0.658089
 H         2.224878        -2.128259        -0.942429
 H         4.029016        -2.778369         1.530269
 H         4.706839         0.667244        -0.056985
 H         3.554613         1.175822        -2.181221
 H         3.187550        -0.650711        -2.232384
 H         3.117073         0.969324         1.659981
