19
Iteration:  2621
 C         0.097856         0.325988         0.309538
 C         1.435830        -0.254027        -0.143005
 C         1.887937        -1.738889         0.071356
 C         3.244669        -1.099147         0.599356
 O         4.115742        -1.723595         1.420509
 C         3.774006         0.140732        -0.171082
 C         3.239438         0.499764        -1.469022
 O         1.798709         0.154754        -1.482449
 C         2.559076         0.255291         0.847928
 H        -0.156592         0.065448         1.343952
 H         0.393323         1.355717         0.268857
 H        -0.730945        -0.002501        -0.230865
 H         1.418092        -2.139525         1.007548
 H         1.829274        -2.385468        -0.859002
 H         3.646185        -2.540527         1.631951
 H         4.767279         0.339562         0.066613
 H         3.203927         1.645289        -1.678267
 H         3.728004         0.039542        -2.397048
 H         2.548671         0.910529         1.655378
