19
Iteration:  4656charge 0 multiplicity 1
 C         0.001653         0.206604         0.112171
 C         1.463721        -0.099317         0.016375
 C         1.904081        -1.606134         0.032142
 C         3.266420        -1.080146         0.652828
 O         4.060248        -1.993523         1.360386
 C         3.763949         0.199025        -0.165282
 C         3.218123         0.267948        -1.588732
 O         1.791533         0.389632        -1.301851
 C         2.691585         0.316463         0.906416
 H        -0.583270        -0.306057         0.914748
 H        -0.257019         1.290839         0.265850
 H        -0.656667         0.056055        -0.811095
 H         1.443470        -2.191762         0.770893
 H         1.845091        -2.278190        -0.804711
 H         4.457478        -1.519981         2.113832
 H         4.893318         0.312112         0.005810
 H         3.465267         1.236273        -2.132656
 H         3.449761        -0.734695        -2.193855
 H         2.741889         1.089317         1.711117
