19
Iteration:  3632
 C         0.159051         0.062657         0.464875
 C         1.531765        -0.140049        -0.092933
 C         2.027180        -1.686861        -0.211740
 C         3.268916        -1.178711         0.592395
 O         3.852183        -1.765007         1.654968
 C         3.800003         0.069979        -0.190710
 C         3.235508         0.462847        -1.563083
 O         1.665146         0.499455        -1.441605
 C         2.694687         0.235478         0.778993
 H         0.061917        -0.531008         1.415241
 H        -0.091292         1.172525         0.732780
 H        -0.605497        -0.074455        -0.391065
 H         1.365627        -2.279774         0.295038
 H         2.301291        -1.984471        -1.204115
 H         4.002190        -2.691729         1.384750
 H         4.834780         0.465498         0.175706
 H         3.446441         1.497723        -2.004141
 H         3.396692        -0.385064        -2.406448
 H         2.539303         0.911540         1.626200
