19
Iteration:  4629charge 0 multiplicity 1
 C        -0.058585         0.132795         0.065486
 C         1.448872        -0.009174        -0.003065
 C         1.920804        -1.508359         0.149637
 C         3.291942        -1.062806         0.653111
 O         4.079091        -2.005749         1.254986
 C         3.815398         0.110231        -0.089585
 C         3.204373         0.134497        -1.509532
 O         1.800726         0.511581        -1.393624
 C         2.621863         0.324392         0.951937
 H        -0.525452        -0.291320         0.941738
 H        -0.482567         1.119076         0.108226
 H        -0.456473        -0.291727        -0.796642
 H         1.441218        -2.081593         1.043416
 H         1.841134        -2.390966        -0.608942
 H         4.912467        -1.556181         1.470087
 H         4.786799         0.444003         0.089252
 H         3.611394         1.004966        -2.024952
 H         3.328192        -0.782221        -2.018051
 H         2.670525         1.025641         1.761921
