19
Iteration:  2066
 C         0.076194         0.254165         0.069188
 C         1.486254        -0.116761         0.018287
 C         1.905057        -1.656625         0.061853
 C         3.181610        -1.110048         0.660725
 O         4.192524        -1.824870         1.402134
 C         3.712032         0.176287        -0.144791
 C         3.160006         0.288933        -1.576077
 O         1.738228         0.360583        -1.347883
 C         2.636483         0.226821         0.971963
 H        -0.447394         0.056947         0.985395
 H         0.028229         1.336192        -0.002101
 H        -0.525475        -0.191127        -0.739620
 H         1.325144        -2.028170         0.855687
 H         1.821663        -2.206757        -0.814797
 H         4.663116        -2.198047         0.644842
 H         4.811301         0.150497         0.028311
 H         3.572545         1.238066        -2.056032
 H         3.446262        -0.589068        -2.101463
 H         2.660378         0.857560         1.972937
