19
Iteration:   127
 C         0.007706         0.094763         0.099172
 C         1.439629        -0.043623        -0.074523
 C         1.940775        -1.608484         0.041984
 C         3.204441        -1.070988         0.691112
 O         4.147138        -1.936992         1.457093
 C         3.746223         0.174259        -0.022840
 C         3.165595         0.224222        -1.504896
 O         1.759867         0.475234        -1.433540
 C         2.673293         0.371301         0.918002
 H        -0.207425        -0.300630         1.133319
 H        -0.405229         1.077151        -0.264720
 H        -0.251544        -0.683432        -0.764495
 H         1.235128        -2.217641         0.642627
 H         2.056990        -2.003102        -0.941785
 H         4.745004        -2.353250         0.792126
 H         4.717083         0.557129        -0.006460
 H         3.528655         1.124416        -2.085023
 H         3.407249        -0.767618        -1.976336
 H         2.668191         1.015400         1.696135
