19
Iteration:  1962
 C        -0.014207         0.180850         0.284923
 C         1.425878        -0.062758        -0.157759
 C         2.042167        -1.592084        -0.029516
 C         3.317623        -1.100970         0.665636
 O         4.137308        -1.831712         1.614031
 C         3.718033         0.069452        -0.216768
 C         3.132294         0.193239        -1.672056
 O         1.757323         0.584596        -1.365855
 C         2.669265         0.213619         0.913415
 H        -0.327816        -0.331161         1.254635
 H        -0.512502         1.157613        -0.022759
 H        -0.626903        -0.414402        -0.421334
 H         1.284223        -2.195756         0.608889
 H         2.109093        -2.276180        -0.991647
 H         4.038351        -2.804492         1.582255
 H         4.657773         0.496054         0.014222
 H         3.596512         0.982509        -2.227507
 H         3.315169        -0.742039        -2.384354
 H         2.805432         1.030243         1.538854
