19
Iteration:   138
 C         0.030109         0.068010         0.135117
 C         1.536951        -0.068584        -0.096298
 C         1.883478        -1.511120         0.001087
 C         3.257845        -1.118326         0.731172
 O         4.093136        -1.944405         1.484442
 C         3.728756         0.200801        -0.142903
 C         3.208355         0.317313        -1.570886
 O         1.792646         0.379334        -1.358713
 C         2.607455         0.338469         0.890385
 H        -0.329522        -0.225358         1.175797
 H        -0.373413         1.120587         0.048328
 H        -0.649553        -0.653256        -0.535972
 H         1.131772        -2.069650         0.597206
 H         1.999237        -2.103198        -0.871454
 H         4.902472        -2.177914         0.961422
 H         4.597734         0.591618         0.304798
 H         3.604245         1.188008        -2.179299
 H         3.512731        -0.575503        -2.189035
 H         2.538143         0.978815         1.678962
