19
Iteration:  1825
 C         0.017785         0.190041         0.316121
 C         1.475931        -0.161392        -0.108784
 C         2.003390        -1.691990        -0.021079
 C         3.228966        -1.140873         0.640574
 O         4.140847        -1.772881         1.522142
 C         3.726302         0.012774        -0.180067
 C         3.262851         0.315130        -1.611465
 O         1.737077         0.537696        -1.411863
 C         2.594426         0.211986         0.816769
 H        -0.212181        -0.131385         1.275633
 H        -0.090630         1.186538         0.130653
 H        -0.745769        -0.223623        -0.276049
 H         1.301742        -2.175037         0.648578
 H         2.063561        -2.256198        -0.925036
 H         3.694324        -2.040521         2.348682
 H         4.668902         0.501668         0.006167
 H         3.587536         1.299953        -2.040896
 H         3.439627        -0.394948        -2.371011
 H         2.675797         0.920715         1.578498
