19
Iteration:  3502
 C         0.101313         0.218986         0.265017
 C         1.491326        -0.198728        -0.082488
 C         1.896298        -1.664188         0.163980
 C         3.234420        -1.151833         0.545269
 O         3.969338        -1.919630         1.427376
 C         3.721839         0.196756        -0.189758
 C         3.217566         0.625276        -1.496157
 O         1.882094         0.232234        -1.463347
 C         2.628334         0.268343         0.828686
 H        -0.191502         0.154438         1.265648
 H         0.027575         1.246909        -0.005427
 H        -0.540984        -0.533348        -0.174149
 H         1.337738        -2.193796         0.935700
 H         1.683740        -2.509650        -0.711710
 H         4.887259        -1.921829         1.128409
 H         4.714795         0.391107         0.145724
 H         3.034597         1.769133        -1.568970
 H         3.700103         0.162502        -2.312790
 H         2.371203         0.639504         1.819794
