19
Iteration:  2965
 C        -0.076468         0.218928         0.209255
 C         1.419675        -0.156291        -0.052697
 C         1.902724        -1.611304         0.119161
 C         3.261293        -1.071853         0.623085
 O         4.160434        -1.975738         1.227032
 C         3.735451         0.180433        -0.057996
 C         3.309965         0.355659        -1.600348
 O         1.866154         0.308048        -1.358527
 C         2.523290         0.336750         0.884448
 H        -0.583945        -0.167899         1.070928
 H        -0.164425         1.326158         0.280338
 H        -0.617742        -0.243074        -0.657077
 H         1.618112        -2.385575         0.878357
 H         1.901600        -2.175952        -0.921034
 H         4.358253        -1.690113         2.129679
 H         4.580148         0.716326         0.473772
 H         3.537316         1.431142        -1.829891
 H         3.608303        -0.514532        -2.194360
 H         2.570554         1.099609         1.731103
