19
Iteration:   243
 C         0.003954         0.070001         0.148647
 C         1.493694        -0.119721        -0.016688
 C         1.925619        -1.611066         0.087846
 C         3.227170        -1.045418         0.616350
 O         4.039467        -1.996529         1.392287
 C         3.721059         0.216428        -0.093542
 C         3.268595         0.264199        -1.568979
 O         1.829166         0.456807        -1.409535
 C         2.566666         0.357325         0.899202
 H        -0.373909        -0.322456         1.062433
 H        -0.287499         1.121114         0.091841
 H        -0.442804        -0.380190        -0.639742
 H         1.453570        -2.072473         0.992684
 H         2.009386        -2.079456        -0.917553
 H         4.929907        -1.558716         1.401563
 H         4.599579         0.715539         0.268028
 H         3.578131         1.077889        -2.178703
 H         3.564120        -0.685289        -2.026156
 H         2.726024         0.985609         1.714432
