19
Iteration:  4290charge 0 multiplicity 1
 C         0.086880         0.137406         0.177848
 C         1.478495        -0.069514         0.002552
 C         1.973285        -1.568010         0.095769
 C         3.246892        -1.118942         0.683715
 O         3.985741        -2.023570         1.337970
 C         3.745888         0.034278        -0.093943
 C         3.183549         0.347743        -1.548945
 O         1.785634         0.372165        -1.367673
 C         2.629959         0.431708         0.821650
 H        -0.448969         0.225360         1.153793
 H        -0.187032         1.232985        -0.098930
 H        -0.513091        -0.553068        -0.522852
 H         1.452548        -2.195132         0.732443
 H         2.074361        -1.872849        -0.923934
 H         4.909313        -1.700566         1.451476
 H         4.807323         0.377615         0.080251
 H         3.409477         1.355068        -1.852755
 H         3.497244        -0.315621        -2.342451
 H         2.652423         1.270809         1.505268
