19
Iteration:  1630
 C        -0.037397         0.016121         0.146617
 C         1.493057        -0.072743        -0.044188
 C         1.881709        -1.544605         0.043335
 C         3.229174        -1.079933         0.617244
 O         4.167594        -1.779108         1.469856
 C         3.765046         0.060904        -0.143217
 C         3.115912         0.105067        -1.635464
 O         1.826329         0.627040        -1.364965
 C         2.715875         0.317974         0.911185
 H        -0.302502        -0.347371         1.126997
 H        -0.362714         1.021413         0.206627
 H        -0.293933        -0.744597        -0.580732
 H         1.345151        -2.074558         0.768951
 H         2.022665        -2.026025        -0.900502
 H         3.767207        -2.483770         2.019949
 H         4.899995         0.229625         0.019587
 H         3.602893         0.751535        -2.296577
 H         3.060000        -0.918715        -2.099910
 H         2.545880         1.160628         1.678689
