19
Iteration:  1066charge 0 multiplicity 1
 C         0.028503         0.110099         0.256251
 C         1.507845        -0.077976        -0.044927
 C         1.934359        -1.695558         0.003551
 C         3.240389        -1.120192         0.625126
 O         4.130801        -1.793540         1.517020
 C         3.717013         0.119423        -0.160389
 C         3.196286         0.392399        -1.574686
 O         1.780307         0.363671        -1.465881
 C         2.625179         0.328401         0.874227
 H        -0.227619        -0.681492         0.957379
 H        -0.110400         1.129139         0.611642
 H        -0.445656         0.095144        -0.759010
 H         1.293135        -2.179097         0.807760
 H         1.760726        -2.331217        -0.960477
 H         3.728254        -2.676701         1.579466
 H         4.669617         0.525582         0.139084
 H         3.526079         1.446238        -1.941753
 H         3.599843        -0.386533        -2.329704
 H         2.778088         1.012320         1.695220
