19
Iteration:  4060charge 0 multiplicity 1
 C         0.006180         0.257679         0.227475
 C         1.467764        -0.146820        -0.054820
 C         1.834687        -1.623348         0.112450
 C         3.210938        -1.106566         0.688850
 O         4.122827        -1.867393         1.385024
 C         3.753220         0.032213        -0.162433
 C         3.247346         0.508947        -1.517792
 O         1.841825         0.218752        -1.429286
 C         2.630285         0.304443         0.850315
 H        -0.395592        -0.224474         1.043602
 H        -0.131322         1.237997         0.587732
 H        -0.508285        -0.020664        -0.668844
 H         1.195565        -2.150844         0.842960
 H         1.814535        -2.260833        -0.907170
 H         4.469173        -2.467024         0.686549
 H         4.714254         0.456228         0.170486
 H         3.464262         1.659692        -1.508620
 H         3.697958         0.123911        -2.499216
 H         2.583111         1.046841         1.601605
