19
Iteration:  3699charge 0 multiplicity 1
 C        -0.094718         0.187549         0.141789
 C         1.445846        -0.053101        -0.056991
 C         1.892691        -1.577377         0.062260
 C         3.219986        -1.158795         0.658716
 O         4.199965        -1.946940         1.348655
 C         3.787267         0.061475        -0.131585
 C         3.265629         0.417416        -1.521003
 O         1.779876         0.376318        -1.320885
 C         2.575138         0.267560         0.942723
 H        -0.378324         0.004553         1.181300
 H        -0.260789         1.248128        -0.302316
 H        -0.786030        -0.318595        -0.637746
 H         1.306403        -2.022263         0.777086
 H         1.991831        -2.085879        -0.896897
 H         4.987757        -2.072396         0.784327
 H         4.782209         0.373290         0.245402
 H         3.574139         1.459004        -1.853074
 H         3.644603        -0.266798        -2.382579
 H         2.498839         0.818365         1.863793
