19
Iteration:  1291charge 0 multiplicity 1
 C         0.045453         0.104844         0.292682
 C         1.481644        -0.110205        -0.148691
 C         1.960995        -1.594691        -0.025494
 C         3.252115        -1.133796         0.617045
 O         4.064092        -1.805483         1.527155
 C         3.740153         0.045799        -0.190697
 C         3.227384         0.362919        -1.530399
 O         1.768307         0.438798        -1.404814
 C         2.662750         0.236388         0.780988
 H         0.027982         0.060751         1.333813
 H        -0.216697         1.106249         0.009678
 H        -0.554188        -0.670492        -0.112671
 H         1.228852        -2.012899         0.729081
 H         2.058317        -2.278065        -0.956414
 H         3.504553        -2.003600         2.310685
 H         4.724275         0.567251        -0.029194
 H         3.393914         1.414862        -1.856034
 H         3.567573        -0.308298        -2.315485
 H         2.645967         0.806532         1.745155
