19
Iteration:  1762
 C        -0.076595         0.179717         0.184118
 C         1.439569        -0.147606        -0.098800
 C         1.989253        -1.609983         0.159395
 C         3.297458        -1.077509         0.642969
 O         4.113841        -1.904325         1.370373
 C         3.752340         0.137458        -0.165284
 C         3.240920         0.341064        -1.554343
 O         1.781162         0.340764        -1.403003
 C         2.667568         0.412089         0.856182
 H        -0.345172        -0.271853         1.158269
 H        -0.349222         1.317445         0.244095
 H        -0.681487        -0.353056        -0.627708
 H         1.389668        -2.095674         1.006416
 H         1.924363        -2.277520        -0.771397
 H         3.495861        -2.411210         1.944858
 H         4.786802         0.408228        -0.049133
 H         3.522497         1.297972        -1.924070
 H         3.661199        -0.522434        -2.188602
 H         2.697041         0.854998         1.799379
