19
Iteration:  1557
 C         0.161274         0.313197         0.342641
 C         1.437661        -0.214552        -0.108109
 C         1.907370        -1.690392         0.122277
 C         3.231857        -1.064297         0.508529
 O         4.068879        -1.776521         1.428056
 C         3.760086         0.093622        -0.131959
 C         3.193439         0.505413        -1.437231
 O         1.825609         0.072533        -1.564589
 C         2.557701         0.283205         0.805928
 H         0.101247        -0.047056         1.379044
 H         0.262230         1.471854         0.450281
 H        -0.573019        -0.076909        -0.484273
 H         1.423683        -2.217117         1.008798
 H         1.705885        -2.137095        -0.899002
 H         3.538437        -1.960769         2.240947
 H         4.890583         0.258806        -0.041621
 H         3.327663         1.703793        -1.491413
 H         3.682829         0.155009        -2.352016
 H         2.478561         1.133062         1.503098
