19
Iteration:  3179charge 0 multiplicity 1
 C         0.011674         0.166258         0.188410
 C         1.469363        -0.190352        -0.069081
 C         1.940200        -1.652906         0.064507
 C         3.185070        -1.094899         0.580304
 O         4.048639        -1.862008         1.345900
 C         3.747625         0.113510        -0.101954
 C         3.238427         0.485358        -1.424007
 O         1.817389         0.313427        -1.406881
 C         2.648410         0.350043         0.913567
 H        -0.304121         0.004281         1.212974
 H        -0.123926         1.237635        -0.155143
 H        -0.571231        -0.592029        -0.258403
 H         1.354111        -2.239169         0.897199
 H         1.900206        -2.275926        -0.883847
 H         4.513192        -2.484847         0.747545
 H         4.824684         0.439272         0.079306
 H         3.386154         1.604206        -1.781127
 H         3.701619        -0.168653        -2.263719
 H         2.711860         0.878052         1.927928
