19
Iteration:  4244charge 0 multiplicity 1
 C         0.198322         0.324492         0.294914
 C         1.445452        -0.217681        -0.108697
 C         1.835245        -1.757655         0.018102
 C         3.240877        -1.215333         0.464962
 O         4.016582        -1.757540         1.529997
 C         3.685055         0.092585        -0.134321
 C         3.244891         0.529388        -1.455757
 O         1.823560         0.287191        -1.477004
 C         2.591984         0.217483         0.803559
 H         0.089654         0.149133         1.393983
 H         0.126686         1.516925         0.463112
 H        -0.624534        -0.282900        -0.283557
 H         1.332615        -2.078951         0.917934
 H         1.738989        -2.282628        -0.853054
 H         4.903836        -2.031259         1.193746
 H         4.596208         0.434214         0.200797
 H         3.416960         1.532911        -1.698185
 H         3.645463        -0.104362        -2.251169
 H         2.564979         0.735639         1.835164
