19
Iteration:   684charge 0 multiplicity 1
 C        -0.017209         0.218102         0.268427
 C         1.460766        -0.243358        -0.095500
 C         1.986367        -1.620001        -0.042627
 C         3.242288        -1.030821         0.649269
 O         4.130618        -1.845018         1.404984
 C         3.740368         0.197792        -0.104955
 C         3.251044         0.300611        -1.553568
 O         1.845732         0.310957        -1.407549
 C         2.536206         0.279302         0.878391
 H        -0.563791        -0.239832         1.124478
 H        -0.077570         1.259284         0.643906
 H        -0.714418         0.176000        -0.690391
 H         1.364154        -2.198469         0.582366
 H         2.149266        -2.131602        -0.925330
 H         3.589648        -2.451366         1.971618
 H         4.526656         0.838795         0.284221
 H         3.575831         1.229328        -2.013482
 H         3.589655        -0.392783        -2.247349
 H         2.689759         0.981290         1.680357
