19
Iteration:  2553charge 0 multiplicity 1
 C        -0.082903         0.064649         0.262597
 C         1.401816        -0.026929        -0.113869
 C         1.977948        -1.636926         0.032292
 C         3.244347        -1.064561         0.662418
 O         4.157921        -1.914796         1.347500
 C         3.751929         0.163708        -0.185305
 C         3.218373         0.173480        -1.537582
 O         1.858801         0.509942        -1.350425
 C         2.611296         0.385771         0.847454
 H        -0.321973        -0.249730         1.249133
 H        -0.408163         1.074960         0.213608
 H        -0.709146        -0.587103        -0.422939
 H         1.386175        -2.177748         0.887313
 H         2.095503        -2.253699        -0.874320
 H         3.700313        -1.949642         2.203544
 H         4.827648         0.368113         0.178160
 H         3.831913         0.895312        -2.133783
 H         3.430503        -0.779103        -2.147823
 H         2.573409         1.183986         1.637748
