19
Iteration:  1353
 C         0.005230         0.173543         0.138250
 C         1.456928        -0.085808        -0.026392
 C         1.830387        -1.593912         0.107522
 C         3.260417        -1.142781         0.663447
 O         4.280183        -1.856514         1.230707
 C         3.701560         0.215453        -0.030655
 C         3.288291         0.193019        -1.478383
 O         1.796759         0.356009        -1.400968
 C         2.554382         0.381286         0.877860
 H        -0.688213         0.035816         1.048531
 H        -0.050895         1.315191        -0.022812
 H        -0.582821        -0.290274        -0.712421
 H         1.132602        -1.961596         0.827753
 H         1.720975        -2.206623        -0.751880
 H         3.943214        -2.533388         1.858943
 H         4.734734         0.428352         0.250092
 H         3.800079         0.962511        -2.129267
 H         3.438737        -0.850995        -1.922717
 H         2.307041         1.172230         1.620675
