19
Iteration:   639
 C         0.084201         0.169398         0.237482
 C         1.435433        -0.223815        -0.143599
 C         1.864853        -1.768202         0.006731
 C         3.213568        -1.125432         0.647125
 O         4.083253        -1.732691         1.504142
 C         3.801736        -0.001725        -0.246902
 C         3.235417         0.683068        -1.494742
 O         1.821877         0.293667        -1.414791
 C         2.630078         0.134514         0.788335
 H         0.088722         0.329495         1.335565
 H        -0.041367         1.251334        -0.003232
 H        -0.902987        -0.313099        -0.133422
 H         1.358260        -2.316680         0.740489
 H         1.846330        -2.344935        -0.853155
 H         3.671897        -1.783803         2.404573
 H         4.723073         0.499888         0.195624
 H         3.485900         1.707803        -1.464133
 H         3.644877         0.319106        -2.346787
 H         2.605032         0.999197         1.518725
