19
Iteration:  2397
 C        -0.033716         0.189300         0.103554
 C         1.407988        -0.110245        -0.048445
 C         1.972993        -1.628620         0.072004
 C         3.249426        -1.069433         0.673714
 O         4.219006        -1.828580         1.320503
 C         3.737877         0.091752        -0.125238
 C         3.156415         0.244800        -1.564456
 O         1.806905         0.494017        -1.297965
 C         2.603236         0.253274         0.906726
 H        -0.194005        -0.045696         1.119701
 H        -0.218129         1.225665        -0.109019
 H        -0.577126        -0.337785        -0.618576
 H         1.463658        -2.251023         0.902868
 H         2.116795        -2.362023        -0.705966
 H         3.731454        -2.527459         1.820701
 H         4.659344         0.522075         0.106192
 H         3.568111         0.999264        -2.247612
 H         3.309933        -0.696617        -2.136834
 H         2.740945         0.936146         1.660935
