19
Iteration:   319charge 0 multiplicity 1
 C         0.024723         0.260282         0.289695
 C         1.485836        -0.227891        -0.161074
 C         1.979327        -1.661174        -0.039474
 C         3.281486        -1.081316         0.612634
 O         4.001423        -1.821875         1.561851
 C         3.723669         0.095564        -0.083281
 C         3.232572         0.454248        -1.476334
 O         1.741593         0.338723        -1.539798
 C         2.631907         0.150253         0.822348
 H        -0.085215        -0.011184         1.340096
 H        -0.065142         1.359994         0.171951
 H        -0.764033        -0.225532        -0.212080
 H         1.406942        -2.178359         0.747656
 H         2.097314        -2.241018        -0.986786
 H         4.968064        -1.722062         1.522835
 H         4.556294         0.679635         0.234225
 H         3.586993         1.395933        -1.763114
 H         3.646906        -0.248419        -2.274013
 H         2.581979         0.784112         1.654995
