19
Iteration:  1053charge 0 multiplicity 1
 C         0.006452         0.134742         0.163987
 C         1.452661        -0.145298        -0.060526
 C         1.970902        -1.567524         0.037891
 C         3.268067        -1.018606         0.672836
 O         4.167811        -1.839662         1.405643
 C         3.805178         0.128620        -0.102611
 C         3.174037         0.227373        -1.568115
 O         1.755765         0.414977        -1.383632
 C         2.592248         0.333764         0.892425
 H        -0.494978        -0.627420         0.751557
 H        -0.231950         1.115336         0.652561
 H        -0.542006         0.096691        -0.827990
 H         1.386431        -2.139182         0.749917
 H         2.133159        -2.114446        -0.902615
 H         3.804237        -2.741103         1.520766
 H         4.722824         0.602751         0.161511
 H         3.576317         1.099565        -2.155030
 H         3.358803        -0.693987        -2.187376
 H         2.423368         0.838222         1.822629
