19
Iteration:  4532
 C         0.168644         0.213363         0.355436
 C         1.478918        -0.159958        -0.189017
 C         2.043065        -1.709563         0.001164
 C         3.193030        -1.155650         0.638825
 O         3.890278        -1.802020         1.619708
 C         3.781034         0.023746        -0.250922
 C         3.158618         0.516166        -1.545864
 O         1.765242         0.377960        -1.504663
 C         2.684901         0.244671         0.819761
 H         0.034345        -0.239306         1.399927
 H         0.151377         1.290022         0.725995
 H        -0.719006         0.062384        -0.193226
 H         1.382028        -2.225958         0.636669
 H         2.110095        -2.297143        -0.935206
 H         4.209129        -2.624630         1.206460
 H         4.769802         0.258873         0.063206
 H         3.525652         1.635516        -1.466387
 H         3.488611         0.113117        -2.601643
 H         2.595143         0.887110         1.734114
