19
Iteration:  4022
 C        -0.041158         0.151154         0.124170
 C         1.468476        -0.079714        -0.023853
 C         1.936683        -1.584436         0.070183
 C         3.288961        -1.105585         0.618899
 O         4.132518        -1.899687         1.469982
 C         3.778974         0.154785        -0.204482
 C         3.138924         0.284757        -1.619214
 O         1.821425         0.538312        -1.336014
 C         2.662719         0.176297         0.961478
 H        -0.530909        -0.552745         0.962182
 H        -0.260040         1.259642         0.050684
 H        -0.624482        -0.229568        -0.769102
 H         1.313809        -2.011465         0.933863
 H         1.797571        -2.205859        -0.738921
 H         4.164781        -2.785795         1.073379
 H         4.592252         0.719015         0.167155
 H         3.645357         1.151272        -2.226380
 H         3.245870        -0.590212        -2.254902
 H         2.738537         0.818925         1.906201
