19
Iteration:  4922charge 0 multiplicity 1
 C        -0.019957         0.232346         0.191755
 C         1.481263        -0.050558        -0.063217
 C         1.960910        -1.602655         0.048763
 C         3.264356        -1.119321         0.705898
 O         4.126560        -1.900772         1.398152
 C         3.709040         0.124754        -0.202837
 C         3.177805         0.087424        -1.574409
 O         1.769392         0.558338        -1.389692
 C         2.677243         0.331000         0.895080
 H        -0.390631        -0.216745         1.145690
 H        -0.191816         1.298952         0.116866
 H        -0.573716        -0.300244        -0.568439
 H         1.374748        -2.306919         0.698032
 H         2.296741        -2.186477        -0.985147
 H         3.708144        -2.142171         2.259068
 H         4.781052         0.282494        -0.001232
 H         3.770088         0.707850        -2.251010
 H         3.281174        -0.949229        -1.930074
 H         2.743928         1.016751         1.732604
