19
Iteration:  1035
 C        -0.110078         0.162041         0.095530
 C         1.412154        -0.095778        -0.073741
 C         2.107075        -1.660553         0.022955
 C         3.285372        -1.049524         0.677982
 O         4.214688        -1.852644         1.286450
 C         3.663461         0.199426        -0.104452
 C         3.202428         0.111772        -1.443566
 O         1.821560         0.476750        -1.324419
 C         2.577876         0.365102         0.928535
 H        -0.720014        -0.416591         0.793772
 H        -0.183564         1.093973         0.582292
 H        -0.705746         0.044956        -0.796607
 H         1.524499        -2.215119         0.849557
 H         2.126187        -2.295939        -0.955660
 H         3.620939        -2.499000         1.727338
 H         4.670751         0.453444         0.164201
 H         3.524087         0.859450        -2.215696
 H         3.257236        -0.933485        -1.842743
 H         2.797390         1.292181         1.428946
