19
Iteration:   121charge 0 multiplicity 1
 C        -0.023884         0.087452         0.064010
 C         1.430305        -0.067257        -0.069281
 C         1.991696        -1.623715         0.044598
 C         3.226695        -1.067973         0.694715
 O         4.134116        -1.893473         1.432186
 C         3.756681         0.126954        -0.064099
 C         3.170920         0.207809        -1.456703
 O         1.758729         0.513390        -1.435087
 C         2.647671         0.368056         0.944366
 H        -0.422704        -0.168200         1.020990
 H        -0.409321         1.054794        -0.169713
 H        -0.426367        -0.570636        -0.625741
 H         1.504348        -2.198131         0.841846
 H         2.090385        -2.037438        -1.027454
 H         4.556873        -2.324898         0.644273
 H         4.885207         0.374692         0.048215
 H         3.678669         0.933014        -2.055814
 H         3.273337        -0.738242        -1.996813
 H         2.721273         1.139261         1.851160
