19
Iteration:   139charge 0 multiplicity 1
 C         0.027383         0.069031         0.140741
 C         1.534324        -0.076395        -0.094637
 C         1.885793        -1.510204        -0.000744
 C         3.260264        -1.119311         0.729406
 O         4.086142        -1.941999         1.486824
 C         3.729387         0.198133        -0.151654
 C         3.215726         0.327207        -1.574174
 O         1.797464         0.375080        -1.357624
 C         2.601779         0.333028         0.888210
 H        -0.325542        -0.206320         1.169702
 H        -0.353244         1.090054         0.075126
 H        -0.666068        -0.632717        -0.521292
 H         1.153443        -2.041141         0.632180
 H         2.000091        -2.098603        -0.891512
 H         4.894120        -2.146706         0.965188
 H         4.608565         0.583752         0.317868
 H         3.600890         1.183527        -2.165358
 H         3.503841        -0.564818        -2.209356
 H         2.531971         0.996911         1.688518
