19
Iteration:  1292
 C         0.047603         0.102184         0.282034
 C         1.482783        -0.105871        -0.148575
 C         1.959183        -1.593159        -0.022242
 C         3.256433        -1.132643         0.618730
 O         4.067790        -1.810942         1.524963
 C         3.738216         0.046947        -0.187786
 C         3.215141         0.367434        -1.524770
 O         1.773954         0.436372        -1.394707
 C         2.663040         0.242237         0.778087
 H         0.068442         0.069529         1.329183
 H        -0.263439         1.098248        -0.029472
 H        -0.576764        -0.675496        -0.152618
 H         1.231785        -2.021785         0.736770
 H         2.030305        -2.270881        -0.959822
 H         3.504151        -2.024417         2.308332
 H         4.728746         0.574483        -0.009381
 H         3.409776         1.394661        -1.883918
 H         3.521194        -0.350065        -2.335119
 H         2.674487         0.824037         1.728504
