19
Iteration:  4309
 C         0.003625         0.134197         0.112836
 C         1.474095        -0.055382        -0.065503
 C         1.923136        -1.555684         0.054683
 C         3.253164        -1.044169         0.688660
 O         4.070021        -2.044083         1.328514
 C         3.757123         0.102607        -0.148437
 C         3.205260         0.223137        -1.550044
 O         1.782599         0.508092        -1.327855
 C         2.673234         0.347133         0.930433
 H        -0.308964        -0.215319         1.123105
 H        -0.470913         1.212286        -0.081085
 H        -0.661164        -0.545066        -0.537492
 H         1.280358        -1.976092         0.919818
 H         1.951943        -2.236998        -0.786944
 H         4.889339        -1.639825         1.667592
 H         4.680568         0.509084         0.113848
 H         3.721557         1.010153        -2.059366
 H         3.275893        -0.816821        -1.964942
 H         2.664448         1.201544         1.688319
