19
Iteration:  1810
 C         0.021871         0.102834         0.293575
 C         1.467919        -0.076907        -0.147125
 C         1.996843        -1.682524        -0.032446
 C         3.173653        -1.087911         0.727800
 O         4.115003        -1.786754         1.407479
 C         3.765087         0.068828        -0.145197
 C         3.139119         0.207079        -1.575720
 O         1.822931         0.552491        -1.399940
 C         2.625210         0.354323         0.837245
 H         0.031468        -0.362550         1.387256
 H        -0.229640         1.257488         0.349951
 H        -0.585425        -0.499426        -0.434714
 H         1.388067        -2.353576         0.568619
 H         2.348150        -2.263141        -0.904298
 H         3.660425        -2.397641         2.003409
 H         4.806692         0.176781         0.263947
 H         3.742047         0.973262        -2.137434
 H         3.158839        -0.808946        -2.009246
 H         2.539065         1.162342         1.654710
