19
Iteration:  3775charge 0 multiplicity 1
 C         0.005669         0.170669         0.381366
 C         1.434048        -0.176554        -0.168241
 C         1.956439        -1.624910        -0.127938
 C         3.248383        -1.166165         0.593943
 O         4.021129        -1.905571         1.537692
 C         3.771135         0.070935        -0.143464
 C         3.211455         0.450671        -1.569055
 O         1.810555         0.428130        -1.380009
 C         2.615853         0.261118         0.812418
 H        -0.064535        -0.287746         1.381771
 H        -0.009771         1.298494         0.690509
 H        -0.913962         0.003065        -0.299771
 H         1.354168        -2.206385         0.480147
 H         2.078839        -2.008153        -1.136163
 H         4.945421        -1.621516         1.472324
 H         4.752294         0.287981         0.236657
 H         3.509204         1.452660        -1.796625
 H         3.620788        -0.278347        -2.224110
 H         2.638904         0.912466         1.688378
