19
Iteration:  1779charge 0 multiplicity 1
 C        -0.067155         0.055457         0.262225
 C         1.447080         0.005544         0.008358
 C         1.955956        -1.501885         0.044786
 C         3.297535        -0.991147         0.636438
 O         4.084513        -1.903362         1.358879
 C         3.796182         0.163043        -0.112340
 C         3.224274         0.151273        -1.575967
 O         1.823811         0.402960        -1.464956
 C         2.627472         0.333078         0.905502
 H        -0.227365        -0.607154         1.119535
 H        -0.427934         1.052578         0.200629
 H        -0.573742        -0.402478        -0.551241
 H         1.502231        -2.100231         0.800835
 H         1.943636        -2.132256        -0.814401
 H         3.532362        -2.628381         1.726123
 H         4.725855         0.651744         0.327360
 H         3.741298         0.877335        -2.292892
 H         3.337249        -0.801775        -2.033027
 H         2.684104         1.271696         1.550000
