19
Iteration:   535
 C         0.042929         0.186416         0.201269
 C         1.452666        -0.206656        -0.063566
 C         1.878317        -1.687393         0.029368
 C         3.214279        -1.106797         0.613943
 O         4.147935        -1.746462         1.466512
 C         3.730538         0.118353        -0.126866
 C         3.252736         0.373056        -1.546291
 O         1.795646         0.372805        -1.383427
 C         2.634091         0.311981         0.806124
 H        -0.488360        -0.567081         0.792379
 H        -0.160295         1.221314         0.539710
 H        -0.492000         0.128696        -0.730939
 H         1.331815        -2.238740         0.882266
 H         1.876555        -2.275233        -0.963147
 H         3.972780        -2.638695         1.820674
 H         4.794606         0.369969         0.072765
 H         3.528831         1.420932        -1.911466
 H         3.596129        -0.417365        -2.201380
 H         2.621064         0.863250         1.768266
