19
Iteration:  3811
 C         0.153006         0.106891         0.398006
 C         1.495489        -0.227734        -0.165814
 C         2.012331        -1.688668        -0.150089
 C         3.255686        -1.145255         0.555208
 O         3.808165        -1.877151         1.615695
 C         3.769168         0.074521        -0.185993
 C         3.178560         0.527516        -1.553048
 O         1.779127         0.514067        -1.370197
 C         2.689989         0.250372         0.767011
 H         0.323251        -0.277581         1.477573
 H         0.070872         1.216205         0.312997
 H        -0.793444        -0.403683         0.162804
 H         1.425560        -2.206581         0.622092
 H         2.093729        -2.303816        -1.039432
 H         4.772916        -1.818714         1.706924
 H         4.810282         0.284847        -0.024587
 H         3.319490         1.514335        -2.079174
 H         3.421249        -0.064012        -2.379796
 H         2.637911         0.846355         1.695227
