19
Iteration:  1871charge 0 multiplicity 1
 C         0.117076         0.319328         0.281680
 C         1.451766        -0.261628        -0.074591
 C         1.909909        -1.681682         0.138170
 C         3.189114        -1.049907         0.610415
 O         4.054311        -1.888972         1.378737
 C         3.694426         0.072240        -0.186351
 C         3.173225         0.625899        -1.528258
 O         1.871960         0.120459        -1.493309
 C         2.666315         0.280282         0.840746
 H        -0.237577        -0.003734         1.224842
 H         0.139266         1.363842         0.119318
 H        -0.683628         0.041154        -0.396302
 H         1.468393        -2.372075         0.914186
 H         2.040698        -2.250760        -0.824787
 H         3.972413        -1.573531         2.285830
 H         4.700626         0.333127         0.111892
 H         3.249132         1.720203        -1.524939
 H         3.645643         0.241407        -2.487685
 H         2.605324         0.874734         1.784369
