19
Iteration:  4998charge 0 multiplicity 1
 C         0.130336         0.432214         0.312249
 C         1.468285        -0.181152        -0.081764
 C         1.852182        -1.670090         0.095859
 C         3.268293        -1.167406         0.579486
 O         4.075431        -1.852626         1.466829
 C         3.743525         0.067606        -0.188428
 C         3.187666         0.506290        -1.512255
 O         1.846156         0.066376        -1.492672
 C         2.580033         0.364888         0.746020
 H        -0.080510         0.230910         1.399897
 H         0.179249         1.532074         0.281109
 H        -0.669203         0.019265        -0.326245
 H         1.491823        -2.139632         0.985660
 H         1.761556        -2.332845        -0.845888
 H         3.595443        -2.478419         2.015211
 H         4.607404         0.553480         0.184244
 H         3.295806         1.624834        -1.634994
 H         3.759404         0.044919        -2.279433
 H         2.694203         1.031512         1.575501
