19
Iteration:  2289charge 0 multiplicity 1
 C        -0.066972         0.301469         0.294285
 C         1.410650        -0.051049        -0.137365
 C         1.942124        -1.688983         0.008560
 C         3.293347        -1.206091         0.610186
 O         4.139979        -1.827396         1.515089
 C         3.769603         0.069563        -0.116646
 C         3.231313         0.364033        -1.524247
 O         1.744139         0.358500        -1.465700
 C         2.659481         0.215899         0.824071
 H        -0.263938         0.056276         1.346338
 H        -0.265641         1.381433         0.144450
 H        -0.914936        -0.271383        -0.318202
 H         1.323381        -2.267820         0.777174
 H         1.962500        -2.178967        -0.944417
 H         5.045777        -1.920286         1.164217
 H         4.740918         0.587108         0.146181
 H         3.486243         1.458775        -1.812015
 H         3.377358        -0.446366        -2.247166
 H         2.628312         0.790801         1.812850
