19
Iteration:  3029
 C        -0.081466         0.124232         0.277332
 C         1.423025        -0.136463        -0.125783
 C         2.038515        -1.636149        -0.063130
 C         3.277556        -1.147820         0.616743
 O         4.026974        -1.889006         1.534717
 C         3.796797         0.018571        -0.182909
 C         3.210130         0.385182        -1.565056
 O         1.768783         0.546315        -1.353814
 C         2.699579         0.216915         0.822157
 H        -0.225339        -0.104190         1.342578
 H        -0.484314         1.193408        -0.007567
 H        -0.707599        -0.432005        -0.480712
 H         1.474805        -2.246105         0.597711
 H         2.183460        -2.211912        -0.998084
 H         4.401760        -1.277361         2.193113
 H         4.833752         0.462170        -0.042132
 H         3.465902         1.432890        -1.805724
 H         3.256424        -0.336079        -2.436990
 H         2.839090         0.854802         1.758468
