19
Iteration:  1068charge 0 multiplicity 1
 C         0.020416         0.113132         0.268862
 C         1.507400        -0.086150        -0.058000
 C         1.935150        -1.693829         0.008977
 C         3.240367        -1.124130         0.612071
 O         4.119167        -1.786806         1.526483
 C         3.694473         0.115255        -0.160403
 C         3.207435         0.420316        -1.574049
 O         1.777258         0.354797        -1.462400
 C         2.640318         0.308547         0.860803
 H        -0.153846        -0.699850         0.992404
 H        -0.097904         1.133938         0.569570
 H        -0.429988         0.114492        -0.714995
 H         1.282965        -2.190129         0.822219
 H         1.773783        -2.333328        -0.959751
 H         3.750508        -2.670839         1.624468
 H         4.719433         0.477507         0.096786
 H         3.579039         1.458614        -1.914087
 H         3.637961        -0.331641        -2.322407
 H         2.791001         1.069734         1.648896
