19
Iteration:   829
 C         0.072918         0.163012         0.274381
 C         1.493442        -0.125235        -0.082792
 C         1.936239        -1.665633         0.009961
 C         3.215467        -1.104842         0.649246
 O         4.080228        -1.793058         1.435735
 C         3.700344         0.155067        -0.138386
 C         3.271775         0.437656        -1.546218
 O         1.780621         0.289362        -1.454612
 C         2.647964         0.251791         0.829904
 H        -0.108741        -0.215291         1.378931
 H        -0.194138         1.284116         0.401565
 H        -0.463338        -0.573105        -0.456753
 H         1.252816        -2.006956         0.778390
 H         2.012145        -2.257453        -0.867664
 H         3.540747        -2.453929         1.885423
 H         4.697113         0.580772         0.118464
 H         3.451382         1.511196        -1.941526
 H         3.522032        -0.394106        -2.244861
 H         2.604353         0.992008         1.657144
