19
Iteration:  4349
 C         0.063042         0.209934         0.232495
 C         1.472863        -0.117987        -0.100898
 C         1.921889        -1.632149        -0.070007
 C         3.226804        -1.137578         0.659761
 O         4.055575        -1.858777         1.479321
 C         3.746592         0.036512        -0.167263
 C         3.196847         0.253193        -1.548570
 O         1.814120         0.504791        -1.302898
 C         2.599730         0.237466         0.831490
 H        -0.150613        -0.462670         1.083797
 H         0.053091         1.258443         0.381566
 H        -0.567586         0.010945        -0.594906
 H         1.320457        -2.299555         0.596550
 H         1.832321        -2.175208        -1.060373
 H         4.808391        -1.316521         1.786863
 H         4.674356         0.544774         0.026463
 H         3.498499         1.237307        -2.115918
 H         3.307311        -0.643422        -2.176771
 H         2.713046         1.063806         1.577492
