19
Iteration:    31
 C         0.086256         0.148810         0.487751
 C         1.511068        -0.224252        -0.152193
 C         1.933616        -1.689290        -0.014190
 C         3.257586        -1.144183         0.589732
 O         3.854755        -1.816727         1.590057
 C         3.756916         0.206044        -0.092494
 C         3.270630         0.515441        -1.571150
 O         1.809480         0.250805        -1.579734
 C         2.631432         0.313586         0.727055
 H        -0.102244        -0.289586         1.450221
 H         0.195042         1.159235         0.606274
 H        -0.614189        -0.084130        -0.360357
 H         1.412044        -2.209800         0.898327
 H         2.021811        -2.159964        -1.092919
 H         4.756903        -2.188715         1.410266
 H         4.715656         0.377796         0.305380
 H         3.417410         1.571588        -1.715738
 H         3.816716         0.078645        -2.450241
 H         2.513069         1.029023         1.451602
