19
Iteration:  1245charge 0 multiplicity 1
 C         0.174759         0.201675         0.426544
 C         1.500107        -0.226875        -0.176031
 C         1.962190        -1.649224        -0.134335
 C         3.235554        -1.072577         0.629607
 O         4.036473        -1.783442         1.542459
 C         3.753198         0.134867        -0.108754
 C         3.245758         0.394653        -1.561959
 O         1.717306         0.296584        -1.522415
 C         2.575775         0.223733         0.825252
 H        -0.220797        -0.450328         1.211458
 H         0.441496         1.174886         0.880796
 H        -0.505699         0.182057        -0.405654
 H         1.305442        -2.167199         0.629633
 H         2.071142        -2.209142        -1.130967
 H         3.597281        -1.771459         2.401458
 H         4.737323         0.466799         0.125806
 H         3.515898         1.518932        -1.672954
 H         3.421100        -0.136080        -2.477889
 H         2.349606         0.849396         1.670862
