19
Iteration:  1451charge 0 multiplicity 1
 C         0.092440         0.119556         0.286480
 C         1.456835        -0.098812        -0.133352
 C         1.957643        -1.608811        -0.020918
 C         3.201821        -1.104894         0.647825
 O         4.059859        -1.838410         1.478754
 C         3.763077         0.029826        -0.213267
 C         3.252735         0.271406        -1.597736
 O         1.820427         0.456490        -1.384562
 C         2.596265         0.313311         0.857633
 H        -0.031963        -0.308222         1.338770
 H        -0.322913         1.159477         0.445658
 H        -0.684600        -0.550008        -0.134802
 H         1.316540        -2.180023         0.673971
 H         1.996444        -2.101292        -0.988623
 H         3.679773        -1.551145         2.344226
 H         4.710233         0.507154         0.149378
 H         3.546443         1.191722        -2.052860
 H         3.513032        -0.586054        -2.322651
 H         2.489370         1.219469         1.480224
