19
Iteration:  1060
 C         0.059031         0.118460         0.192408
 C         1.482244        -0.086151        -0.026531
 C         1.934367        -1.662401         0.001913
 C         3.247457        -1.083018         0.663386
 O         4.159935        -1.819846         1.468187
 C         3.789786         0.121977        -0.149179
 C         3.174037         0.297624        -1.580045
 O         1.782464         0.394785        -1.452756
 C         2.589059         0.364430         0.896498
 H        -0.571150        -0.585752         0.828991
 H        -0.198767         1.050561         0.766155
 H        -0.508118        -0.027501        -0.715630
 H         1.343591        -2.134570         0.783103
 H         1.914052        -2.216987        -0.915268
 H         3.729792        -2.681957         1.488015
 H         4.669372         0.685351         0.273874
 H         3.365675         1.246474        -2.012769
 H         3.392487        -0.497906        -2.258579
 H         2.623747         0.868626         1.898590
