19
Iteration:  1549charge 0 multiplicity 1
 C         0.128139         0.311797         0.325723
 C         1.455246        -0.262116        -0.079827
 C         1.840962        -1.671817         0.149181
 C         3.223803        -1.085050         0.598559
 O         4.073243        -1.758961         1.404327
 C         3.786751         0.073645        -0.217360
 C         3.262355         0.586309        -1.473928
 O         1.837030         0.062246        -1.540775
 C         2.600533         0.296154         0.782931
 H        -0.167865        -0.139665         1.279525
 H         0.020560         1.406529         0.236132
 H        -0.812840         0.157641        -0.238453
 H         1.350672        -2.234532         1.036256
 H         1.800468        -2.333387        -0.774945
 H         3.571647        -2.235144         2.106776
 H         4.726482         0.513876         0.114313
 H         3.378521         1.679176        -1.439508
 H         3.651252         0.149488        -2.405823
 H         2.491895         0.933366         1.598395
