19
Iteration:  1858charge 0 multiplicity 1
 C         0.080066         0.307489         0.267951
 C         1.499513        -0.168701        -0.034177
 C         1.915018        -1.749014         0.013956
 C         3.200638        -1.208127         0.573310
 O         4.032315        -1.766429         1.465548
 C         3.798831         0.146384        -0.222288
 C         3.223465         0.574711        -1.520903
 O         1.722884         0.156444        -1.459007
 C         2.707637         0.194170         0.850760
 H        -0.208508         0.156009         1.258787
 H         0.173361         1.313508         0.144262
 H        -0.547032        -0.125671        -0.462302
 H         1.324574        -2.236851         0.767852
 H         1.916437        -2.293048        -0.894960
 H         3.832910        -1.451991         2.374473
 H         4.810761         0.349400         0.016025
 H         3.206609         1.682259        -1.474630
 H         3.704666         0.237748        -2.397992
 H         2.740690         0.700642         1.778305
