19
Iteration:  1642
 C        -0.069688         0.006472         0.213333
 C         1.480902        -0.019869         0.004842
 C         1.975753        -1.549337         0.045870
 C         3.298823        -1.160615         0.650521
 O         4.145322        -1.808106         1.444777
 C         3.716891         0.025185        -0.149375
 C         3.173714         0.164853        -1.636231
 O         1.841366         0.541658        -1.365242
 C         2.653191         0.458062         0.849817
 H        -0.350445        -0.466323         1.124372
 H        -0.573106         0.938815        -0.048836
 H        -0.697246        -0.428450        -0.628916
 H         1.283333        -2.010826         0.677989
 H         1.799627        -2.138754        -0.840995
 H         3.620553        -2.578574         1.692633
 H         4.805212         0.303705         0.158890
 H         3.737886         0.853238        -2.267361
 H         3.201834        -0.841980        -2.117605
 H         2.782875         1.299535         1.603189
