19
Iteration:  2503charge 0 multiplicity 1
 C         0.054814         0.213093         0.259735
 C         1.450131        -0.205107        -0.084263
 C         1.991500        -1.727440        -0.005642
 C         3.229180        -1.125428         0.704981
 O         4.102722        -1.758741         1.474308
 C         3.763829         0.051367        -0.191878
 C         3.198184         0.399294        -1.638973
 O         1.742660         0.404663        -1.347382
 C         2.651833         0.314545         0.810275
 H        -0.423318        -0.294990         1.167524
 H         0.123353         1.349159         0.478247
 H        -0.631295        -0.068029        -0.506719
 H         1.424975        -2.369979         0.571954
 H         2.058055        -2.106013        -1.057159
 H         3.549364        -2.417935         1.954521
 H         4.784549         0.305615         0.099945
 H         3.513154         1.437321        -1.923178
 H         3.501602        -0.449616        -2.271605
 H         2.643691         0.988616         1.571622
