19
Iteration:    38
 C         0.100321         0.163845         0.479261
 C         1.496381        -0.264956        -0.062832
 C         1.939308        -1.726246        -0.043148
 C         3.209931        -1.163581         0.555590
 O         3.881256        -1.808889         1.625455
 C         3.783991         0.157204        -0.152665
 C         3.294775         0.572657        -1.542360
 O         1.828389         0.243801        -1.544040
 C         2.616493         0.362786         0.685267
 H        -0.276974        -0.349444         1.424907
 H         0.036292         1.371069         0.485716
 H        -0.705141         0.014376        -0.310620
 H         1.367016        -2.505634         0.429497
 H         1.952552        -2.202015        -0.966072
 H         4.763002        -2.179530         1.424397
 H         4.790655         0.480106         0.218399
 H         3.376100         1.719154        -1.678383
 H         3.690535        -0.110116        -2.305153
 H         2.492493         1.324207         1.311781
