19
Iteration:  4326
 C        -0.147495         0.172549         0.205814
 C         1.423287        -0.068017        -0.100727
 C         1.973920        -1.588193         0.119100
 C         3.271104        -1.129836         0.570536
 O         4.061686        -1.936815         1.372393
 C         3.798019         0.147108        -0.096333
 C         3.192215         0.135581        -1.549086
 O         1.869406         0.624717        -1.388442
 C         2.638187         0.245365         0.895801
 H        -0.264933        -0.490419         1.095155
 H        -0.238790         1.194234         0.005037
 H        -0.658372        -0.287426        -0.585030
 H         1.414014        -2.158012         0.844624
 H         1.940168        -2.303485        -0.774687
 H         4.769759        -1.337656         1.692853
 H         4.897307         0.428427         0.127649
 H         3.679661         0.949691        -2.260940
 H         3.153670        -0.874466        -1.938069
 H         2.758003         0.655597         1.873659
