19
Iteration:  1266charge 0 multiplicity 1
 C         0.087238         0.218070         0.458337
 C         1.427675        -0.195089        -0.124681
 C         1.968653        -1.785492        -0.117493
 C         3.181972        -1.131630         0.604323
 O         4.011910        -1.722349         1.541467
 C         3.756199         0.033168        -0.133229
 C         3.264102         0.503856        -1.552142
 O         1.845400         0.344715        -1.511778
 C         2.601604         0.251779         0.741217
 H         0.131728        -0.320724         1.459328
 H         0.281988         1.250247         0.762501
 H        -0.727724        -0.280987        -0.029117
 H         1.401015        -2.492387         0.508744
 H         2.127986        -2.075763        -1.168880
 H         3.546412        -1.642522         2.408745
 H         4.719511         0.313328         0.191973
 H         3.388747         1.537942        -2.012807
 H         3.500476        -0.210282        -2.287864
 H         2.604598         0.974983         1.532700
