19
Iteration:    49
 C         0.087834         0.209632         0.361575
 C         1.428404        -0.199855        -0.075994
 C         1.955350        -1.757869        -0.110092
 C         3.230255        -1.106261         0.619675
 O         3.913455        -1.784393         1.644721
 C         3.789247         0.047446        -0.239981
 C         3.231119         0.534124        -1.517244
 O         1.844317         0.248067        -1.449470
 C         2.604350         0.318179         0.738425
 H        -0.077069        -0.317404         1.370397
 H         0.052623         1.349623         0.712094
 H        -0.713162        -0.189987        -0.321551
 H         1.435834        -2.378859         0.612927
 H         2.198875        -2.002199        -1.089727
 H         4.729949        -2.098541         1.168495
 H         4.723744         0.518222         0.116065
 H         3.534384         1.638561        -1.713462
 H         3.683267         0.099954        -2.445277
 H         2.520217         1.157287         1.518584
