19
Iteration:  1539charge 0 multiplicity 1
 C         0.004634         0.312554         0.286339
 C         1.447875        -0.169271        -0.118435
 C         1.860278        -1.710433         0.148105
 C         3.167684        -1.123665         0.650002
 O         4.132852        -1.778545         1.419501
 C         3.775869         0.089255        -0.190401
 C         3.230062         0.580545        -1.580173
 O         1.869951         0.097570        -1.463972
 C         2.660390         0.280504         0.761769
 H        -0.225283         0.092507         1.344728
 H         0.191067         1.371063         0.409287
 H        -0.667215        -0.141778        -0.423254
 H         1.251519        -2.018472         1.053700
 H         1.881888        -2.522043        -0.606780
 H         3.625557        -2.438407         1.945773
 H         4.646444         0.471051         0.303157
 H         3.184017         1.632937        -1.620028
 H         3.791234         0.236480        -2.470222
 H         2.662086         0.838229         1.642450
