19
Iteration:  4276charge 0 multiplicity 1
 C        -0.048795         0.255966         0.234801
 C         1.471028        -0.137409        -0.078647
 C         1.959979        -1.642523         0.061079
 C         3.234871        -1.075354         0.637593
 O         3.983452        -2.006165         1.422416
 C         3.768904         0.097584        -0.180751
 C         3.227168         0.468708        -1.497043
 O         1.788151         0.288284        -1.439833
 C         2.705030         0.351270         0.873291
 H        -0.027155         0.062131         1.315682
 H        -0.239777         1.385499        -0.087964
 H        -0.759901        -0.507039        -0.296124
 H         1.379565        -2.266497         0.839539
 H         2.024158        -2.274527        -0.794840
 H         4.921327        -1.800316         1.364555
 H         4.714947         0.409080         0.100353
 H         3.552351         1.446356        -1.773818
 H         3.632672        -0.159040        -2.352137
 H         2.770726         1.111631         1.724535
