19
Iteration:  3593charge 0 multiplicity 1
 C        -0.066854         0.061578         0.258059
 C         1.466548        -0.094659        -0.069060
 C         1.985833        -1.604604        -0.019168
 C         3.252501        -1.100636         0.610471
 O         4.052462        -1.887574         1.535009
 C         3.791938         0.080159        -0.147358
 C         3.253922         0.271359        -1.633357
 O         1.757775         0.638594        -1.343178
 C         2.648902         0.262346         0.820684
 H        -0.408625        -0.722307         0.975487
 H        -0.488138         0.935581         0.707709
 H        -0.448292        -0.201857        -0.702875
 H         1.294768        -2.178434         0.734916
 H         1.998696        -2.186658        -1.021239
 H         4.754213        -2.414932         1.105479
 H         4.742029         0.552713         0.202767
 H         3.781294         1.101825        -2.096163
 H         3.220591        -0.652931        -2.043116
 H         2.735074         1.006501         1.596660
