19
Iteration:  1798
 C         0.091743         0.008916         0.236625
 C         1.491273        -0.044659        -0.113609
 C         1.966430        -1.542151        -0.030847
 C         3.164168        -1.010151         0.665724
 O         4.128277        -1.849574         1.386086
 C         3.725782         0.117458        -0.103755
 C         3.202437         0.057075        -1.493487
 O         1.808532         0.519471        -1.338740
 C         2.609043         0.440271         0.811638
 H        -0.026313        -0.516903         1.302428
 H        -0.316735         1.139006         0.417518
 H        -0.725506        -0.483530        -0.405380
 H         1.235130        -2.149430         0.538476
 H         2.134803        -2.016806        -1.036733
 H         3.643857        -2.602373         1.777449
 H         4.776343         0.401101        -0.073476
 H         3.610591         0.770023        -2.231710
 H         3.281474        -0.917426        -2.067242
 H         2.534936         1.101622         1.720297
