19
Iteration:  3525
 C         0.002743         0.325659         0.236747
 C         1.397465        -0.174857        -0.166937
 C         1.911277        -1.598817         0.080027
 C         3.256490        -1.139036         0.571159
 O         4.125428        -1.951142         1.365001
 C         3.727533         0.191006        -0.033699
 C         3.280048         0.553216        -1.444812
 O         1.793600         0.125581        -1.489506
 C         2.577625         0.219234         0.908096
 H        -0.121175         0.431821         1.287420
 H         0.081384         1.380485        -0.057157
 H        -0.828524        -0.281078        -0.076587
 H         1.417151        -2.169032         0.919334
 H         1.815451        -2.424345        -0.774747
 H         5.002220        -1.836387         0.939176
 H         4.709490         0.510767         0.451412
 H         3.035879         1.650161        -1.472268
 H         3.812852         0.084767        -2.247852
 H         2.670255         1.076303         1.576193
