19
Iteration:   165
 C         0.006809         0.195823         0.306988
 C         1.484645        -0.185452        -0.142264
 C         1.973626        -1.784350         0.030100
 C         3.281425        -1.130655         0.562884
 O         3.918471        -1.773985         1.498607
 C         3.789682         0.088304        -0.158972
 C         3.251049         0.441921        -1.458843
 O         1.773250         0.378418        -1.477345
 C         2.626069         0.308609         0.767897
 H        -0.268996        -0.145232         1.265236
 H        -0.217673         1.236080         0.369451
 H        -0.690186        -0.209153        -0.294007
 H         1.470215        -2.350128         0.834468
 H         2.301327        -2.436007        -0.856131
 H         4.898902        -1.778472         1.529383
 H         4.750039         0.429481         0.308602
 H         3.540590         1.445829        -1.592938
 H         3.693082        -0.142317        -2.268087
 H         2.626151         0.817273         1.828285
