19
Iteration:  4603charge 0 multiplicity 1
 C         0.045359         0.158360         0.183817
 C         1.465520        -0.130524        -0.098130
 C         1.886156        -1.591558         0.080933
 C         3.195973        -1.129199         0.724687
 O         4.094352        -1.971332         1.400570
 C         3.738642         0.066041        -0.108639
 C         3.214386         0.283321        -1.536268
 O         1.837572         0.497894        -1.357990
 C         2.601630         0.371278         0.804207
 H        -0.182860         0.122780         1.265885
 H        -0.181340         1.262045         0.083074
 H        -0.710573        -0.486461        -0.505443
 H         1.195274        -2.285999         0.644953
 H         2.088731        -2.190016        -0.792275
 H         4.873773        -1.868652         0.825411
 H         4.742677         0.557368         0.191951
 H         3.517295         1.219469        -1.955871
 H         3.458014        -0.509191        -2.252709
 H         2.654995         1.167699         1.579063
