19
Iteration:  1860
 C         0.093773         0.292662         0.267744
 C         1.483270        -0.170487        -0.030618
 C         1.922211        -1.741028         0.032994
 C         3.190445        -1.192671         0.583285
 O         4.026896        -1.776508         1.449181
 C         3.778257         0.149618        -0.229181
 C         3.227405         0.578798        -1.521647
 O         1.733473         0.143757        -1.465320
 C         2.713869         0.199381         0.850003
 H        -0.247492         0.243608         1.257724
 H         0.188768         1.366833         0.210554
 H        -0.564942        -0.120580        -0.486033
 H         1.305194        -2.278205         0.823249
 H         1.971574        -2.314373        -0.936070
 H         3.848785        -1.457430         2.350909
 H         4.797364         0.347741         0.041439
 H         3.267163         1.662068        -1.447311
 H         3.768045         0.307052        -2.475081
 H         2.727874         0.705948         1.844821
