19
Iteration:  4539
 C         0.201471         0.233616         0.395068
 C         1.493300        -0.188864        -0.160828
 C         2.021386        -1.721280        -0.043387
 C         3.207674        -1.175876         0.576003
 O         3.864172        -1.772016         1.631618
 C         3.761342         0.041516        -0.212028
 C         3.162980         0.568634        -1.557176
 O         1.756846         0.355394        -1.472539
 C         2.687863         0.225194         0.766343
 H         0.065255        -0.220661         1.317813
 H         0.263445         1.308392         0.408219
 H        -0.737855         0.103711        -0.162649
 H         1.337141        -2.323404         0.732192
 H         2.215481        -2.470442        -0.886167
 H         4.106870        -2.678700         1.413191
 H         4.836171         0.310027         0.109949
 H         3.407489         1.672229        -1.530554
 H         3.560179         0.082780        -2.441394
 H         2.709305         0.836839         1.689493
