19
Iteration:  2961
 C        -0.061050         0.208284         0.207565
 C         1.435907        -0.132476        -0.038206
 C         1.926252        -1.649689         0.098976
 C         3.234784        -1.069858         0.629538
 O         4.166902        -1.977858         1.244950
 C         3.728951         0.155741        -0.094447
 C         3.288686         0.394737        -1.543013
 O         1.849717         0.292987        -1.355682
 C         2.553871         0.337405         0.839122
 H        -0.543870        -0.167787         1.170191
 H        -0.280076         1.411596         0.227416
 H        -0.556067        -0.071053        -0.749844
 H         1.483376        -2.319413         0.806933
 H         1.938424        -2.170406        -0.824175
 H         4.310650        -1.616589         2.147846
 H         4.583141         0.721932         0.468387
 H         3.540022         1.394287        -1.756489
 H         3.577074        -0.463934        -2.125569
 H         2.538716         1.047619         1.569895
