19
Iteration:  1996charge 0 multiplicity 1
 C         0.221570         0.091291         0.462055
 C         1.523655        -0.220647        -0.159403
 C         1.944578        -1.641642        -0.081396
 C         3.202396        -1.099676         0.589918
 O         3.825857        -1.731435         1.606102
 C         3.792426         0.100564        -0.212873
 C         3.199805         0.384911        -1.616352
 O         1.761141         0.364499        -1.389450
 C         2.702532         0.362575         0.786419
 H         0.037625        -0.313795         1.510549
 H        -0.011829         1.185717         0.550661
 H        -0.429302        -0.449746        -0.266307
 H         1.274339        -2.113301         0.686299
 H         2.037918        -2.188625        -1.092863
 H         4.402958        -2.472246         1.337380
 H         4.857160         0.114754        -0.194276
 H         3.352168         1.422667        -1.893249
 H         3.472140        -0.399197        -2.429233
 H         2.703245         1.112164         1.475133
