19
Iteration:  3092charge 0 multiplicity 1
 C         0.069936         0.136421         0.449008
 C         1.444910        -0.135597        -0.133110
 C         2.063771        -1.567331        -0.136695
 C         3.296041        -1.110829         0.608060
 O         3.976047        -1.976634         1.477702
 C         3.770006         0.129015        -0.067428
 C         3.222890         0.311701        -1.464464
 O         1.702679         0.415751        -1.502503
 C         2.576123         0.334457         0.769360
 H        -0.188104        -0.576181         1.230144
 H        -0.233794         1.205071         0.662689
 H        -0.607314        -0.064883        -0.368646
 H         1.471939        -2.232276         0.511867
 H         2.170743        -1.937849        -1.133854
 H         4.576541        -1.362866         1.955030
 H         4.828311         0.539505         0.286259
 H         3.632097         1.165776        -1.983714
 H         3.718648        -0.365446        -2.155416
 H         2.578733         1.170714         1.457571
