19
Iteration:  2966charge 0 multiplicity 1
 C        -0.078874         0.223740         0.206418
 C         1.414978        -0.161643        -0.053794
 C         1.899932        -1.604702         0.119081
 C         3.267799        -1.071445         0.621879
 O         4.158289        -1.974628         1.223467
 C         3.738340         0.187099        -0.048753
 C         3.312107         0.347804        -1.604438
 O         1.867549         0.311826        -1.361384
 C         2.518848         0.335413         0.895174
 H        -0.580796        -0.179430         1.056689
 H        -0.134722         1.273166         0.282410
 H        -0.631290        -0.267422        -0.622803
 H         1.630675        -2.386390         0.901038
 H         1.896173        -2.162982        -0.914013
 H         4.370088        -1.707523         2.127713
 H         4.562111         0.687104         0.441244
 H         3.542549         1.430875        -1.871118
 H         3.627320        -0.523210        -2.228413
 H         2.571323         1.107328         1.763987
