19
Iteration:   534
 C         0.040751         0.188930         0.206362
 C         1.462349        -0.217144        -0.061765
 C         1.872904        -1.687198         0.032087
 C         3.221498        -1.103404         0.607648
 O         4.141498        -1.741303         1.467356
 C         3.731991         0.114167        -0.126422
 C         3.250083         0.380824        -1.535621
 O         1.789577         0.372349        -1.387527
 C         2.639713         0.308259         0.796950
 H        -0.498206        -0.539753         0.770793
 H        -0.143462         1.198789         0.537823
 H        -0.488400         0.127482        -0.741432
 H         1.334856        -2.269739         0.904076
 H         1.892235        -2.267466        -0.967874
 H         3.941014        -2.630252         1.829921
 H         4.805605         0.338000         0.095989
 H         3.515493         1.434574        -1.889559
 H         3.624595        -0.422567        -2.240142
 H         2.632268         0.877266         1.758573
