19
Iteration:  3211
 C         0.076783         0.198319         0.419319
 C         1.444543        -0.232334        -0.116456
 C         1.977183        -1.699410        -0.146071
 C         3.286423        -1.103500         0.580163
 O         4.008203        -1.860182         1.587592
 C         3.703982         0.199313        -0.115967
 C         3.231473         0.505544        -1.535184
 O         1.775912         0.388639        -1.525451
 C         2.624202         0.204746         0.842626
 H         0.037665        -0.162752         1.436321
 H        -0.148147         1.310173         0.361528
 H        -0.709866        -0.188629        -0.188547
 H         1.319090        -2.323368         0.648675
 H         2.185705        -2.190156        -1.160520
 H         4.153925        -2.782458         1.342973
 H         4.678974         0.727099         0.167521
 H         3.514961         1.525319        -2.026550
 H         3.781768        -0.189664        -2.229259
 H         2.641576         0.697677         1.877283
