19
Iteration:  3815
 C         0.114843         0.109137         0.421685
 C         1.478068        -0.228852        -0.146854
 C         1.999077        -1.660738        -0.171390
 C         3.268912        -1.136954         0.596010
 O         3.817660        -1.898980         1.621090
 C         3.823570         0.082511        -0.222459
 C         3.182727         0.526409        -1.557307
 O         1.788807         0.505476        -1.363827
 C         2.668544         0.247777         0.766640
 H         0.267926        -0.258214         1.397274
 H        -0.084015         1.134394         0.262359
 H        -0.772896        -0.384891         0.080503
 H         1.432712        -2.194716         0.732161
 H         2.099477        -2.270796        -1.124904
 H         4.793279        -1.842814         1.636783
 H         4.938280         0.369335        -0.048571
 H         3.425635         1.517486        -2.050340
 H         3.370712        -0.145811        -2.506474
 H         2.526645         0.849992         1.638314
