19
Iteration:   155
 C        -0.021593         0.132113         0.264745
 C         1.422576        -0.181084        -0.092091
 C         1.997317        -1.649066         0.046683
 C         3.238201        -1.042804         0.586825
 O         3.964495        -1.853312         1.494638
 C         3.783078         0.092902        -0.125723
 C         3.266353         0.400271        -1.547057
 O         1.830117         0.392399        -1.441751
 C         2.594024         0.276239         0.839998
 H        -0.199812        -0.246184         1.253707
 H        -0.154892         1.220127         0.162549
 H        -0.631214        -0.367424        -0.385384
 H         1.550159        -2.304494         0.832757
 H         1.909844        -2.310463        -0.879059
 H         4.919884        -1.880796         1.222755
 H         4.797870         0.491114         0.086404
 H         3.577896         1.408318        -1.825462
 H         3.650957        -0.287183        -2.309816
 H         2.638530         1.057056         1.682222
