19
Iteration:  1778
 C        -0.068215         0.059824         0.252616
 C         1.442847         0.008767         0.013487
 C         1.957973        -1.509862         0.058364
 C         3.295343        -0.989935         0.626712
 O         4.085880        -1.907604         1.360975
 C         3.800307         0.166915        -0.110482
 C         3.221858         0.159943        -1.572978
 O         1.825913         0.398929        -1.470507
 C         2.630582         0.328975         0.903773
 H        -0.235208        -0.613466         1.149927
 H        -0.461793         1.111583         0.214153
 H        -0.616097        -0.412957        -0.559214
 H         1.520137        -2.119685         0.813614
 H         1.972652        -2.144219        -0.809369
 H         3.527269        -2.624002         1.737402
 H         4.730631         0.636385         0.306454
 H         3.724115         0.889407        -2.285872
 H         3.346090        -0.783257        -2.069493
 H         2.682552         1.262217         1.560506
