19
Iteration:  2737charge 0 multiplicity 1
 C        -0.027945         0.166208         0.383986
 C         1.465394        -0.139935        -0.122335
 C         2.013843        -1.672668        -0.012747
 C         3.252203        -1.087357         0.609098
 O         4.063002        -1.799545         1.449427
 C         3.785828         0.101772        -0.182912
 C         3.231955         0.339174        -1.582352
 O         1.798329         0.376930        -1.442324
 C         2.615302         0.313451         0.861150
 H        -0.303528        -0.114664         1.403669
 H        -0.124626         1.223318         0.320242
 H        -0.805990        -0.466268        -0.176464
 H         1.410393        -2.234310         0.664104
 H         2.166971        -2.074305        -0.948644
 H         3.530628        -2.273212         2.104206
 H         4.738090         0.517930         0.040534
 H         3.580435         1.273238        -2.006100
 H         3.597637        -0.483624        -2.271798
 H         2.535423         0.898501         1.669930
