19
Iteration:   431charge 0 multiplicity 1
 C        -0.040332         0.053263         0.104500
 C         1.460864        -0.072518        -0.125528
 C         1.892377        -1.533024        -0.028990
 C         3.219246        -1.131311         0.744821
 O         4.204947        -1.835921         1.495196
 C         3.732308         0.224638        -0.125359
 C         3.183143         0.201879        -1.508028
 O         1.814844         0.495705        -1.364903
 C         2.631019         0.250047         0.910982
 H        -0.367281         0.049721         1.143488
 H        -0.415496         0.969570        -0.295255
 H        -0.540486        -0.744501        -0.390518
 H         1.256838        -2.215066         0.663579
 H         2.042608        -2.006852        -1.023832
 H         4.529487        -2.488681         0.866800
 H         4.699640         0.617392         0.202246
 H         3.670543         0.932977        -2.153894
 H         3.373889        -0.752554        -2.165431
 H         2.634212         0.926398         1.776502
