19
Iteration:  2092charge 0 multiplicity 1
 C        -0.197505         0.189635         0.062541
 C         1.391396        -0.045988        -0.021853
 C         1.953540        -1.553031         0.151182
 C         3.314508        -1.101377         0.635250
 O         4.204302        -1.900465         1.344251
 C         3.856823         0.140556        -0.120837
 C         3.197769         0.201869        -1.468382
 O         1.822412         0.437022        -1.320643
 C         2.597620         0.281027         0.856694
 H        -0.616836        -0.086512         1.091851
 H        -0.631779         1.226548         0.083184
 H        -0.692549        -0.413418        -0.650421
 H         1.303099        -2.014964         0.976776
 H         1.808812        -2.179372        -0.797559
 H         4.383994        -2.532245         0.637068
 H         4.865792         0.394069         0.099073
 H         3.755629         1.060955        -1.957377
 H         3.477528        -0.671160        -2.113851
 H         2.697027         1.033955         1.492285
