19
Iteration:  3454charge 0 multiplicity 1
 C        -0.003150         0.132428         0.234590
 C         1.455480        -0.131784        -0.114779
 C         1.996508        -1.616050        -0.136909
 C         3.264648        -1.159239         0.663665
 O         4.114591        -1.816282         1.575206
 C         3.678323         0.094299        -0.146112
 C         3.230299         0.316680        -1.616288
 O         1.757213         0.543273        -1.340977
 C         2.626632         0.261618         0.894345
 H        -0.284731        -0.473769         1.178696
 H        -0.104239         1.147472         0.630171
 H        -0.687618        -0.206234        -0.571485
 H         1.262061        -2.255500         0.388434
 H         2.100961        -2.139564        -1.090249
 H         4.699282        -2.451921         1.101229
 H         4.776072         0.277696         0.147228
 H         3.720749         1.153122        -2.110508
 H         3.065807        -0.671014        -2.128354
 H         2.657530         0.973599         1.739067
