19
Iteration:  2648charge 0 multiplicity 1
 C         0.092057         0.259819         0.266358
 C         1.505256        -0.083584        -0.106053
 C         1.930810        -1.660079         0.094432
 C         3.217525        -1.122098         0.722558
 O         4.180217        -1.847929         1.350451
 C         3.727423         0.148023        -0.139879
 C         3.220505         0.410273        -1.548602
 O         1.745466         0.198996        -1.489530
 C         2.529814         0.298928         0.874483
 H        -0.170878        -0.294496         1.182505
 H        -0.035043         1.372655         0.395489
 H        -0.597992        -0.126893        -0.588966
 H         1.335355        -2.250890         0.765720
 H         2.056951        -2.167427        -0.845533
 H         3.702896        -2.300421         2.064104
 H         4.721493         0.489718         0.275813
 H         3.377846         1.385454        -1.993870
 H         3.692843        -0.142405        -2.349320
 H         2.569248         1.145462         1.718828
