19
Iteration:  3132
 C        -0.053128         0.197180         0.075036
 C         1.448006        -0.145015         0.000398
 C         1.950446        -1.710259         0.095685
 C         3.275554        -1.139003         0.588460
 O         4.115088        -1.883894         1.321302
 C         3.730706         0.106492        -0.074109
 C         3.205182         0.333530        -1.468516
 O         1.770944         0.505623        -1.337166
 C         2.643590         0.282408         0.864762
 H        -0.617638        -0.152365         0.962806
 H         0.005314         1.260041         0.061646
 H        -0.607282        -0.311307        -0.766751
 H         1.353983        -2.165587         1.019404
 H         1.958134        -2.510715        -0.724018
 H         5.020555        -1.554327         1.270253
 H         4.811525         0.333494         0.265922
 H         3.661634         1.350308        -1.871281
 H         3.391845        -0.466368        -2.257485
 H         2.578501         0.915285         1.680537
