19
Iteration:  4409charge 0 multiplicity 1
 C         0.163398         0.182256         0.371909
 C         1.514536        -0.169354        -0.098078
 C         1.849348        -1.679743         0.071089
 C         3.235335        -1.133447         0.475589
 O         3.856490        -1.906097         1.482167
 C         3.799943         0.156728        -0.163615
 C         3.243233         0.552573        -1.545368
 O         1.829086         0.214649        -1.440074
 C         2.634880         0.318760         0.781496
 H        -0.053010         0.109962         1.387927
 H        -0.031077         1.258253         0.279612
 H        -0.563194        -0.405220        -0.210400
 H         1.404824        -1.915397         1.042731
 H         1.632582        -2.215827        -0.829714
 H         4.777809        -1.618404         1.570471
 H         4.863010         0.423797         0.147112
 H         3.420561         1.630850        -1.786101
 H         3.830536         0.009085        -2.347769
 H         2.592829         0.788622         1.715685
