19
Iteration:  4621
 C        -0.097221         0.137908         0.085546
 C         1.473214        -0.039525        -0.048548
 C         1.902117        -1.568183         0.134677
 C         3.242623        -1.051909         0.696643
 O         4.121440        -2.032165         1.295275
 C         3.720063         0.121191        -0.096662
 C         3.245572         0.204751        -1.553369
 O         1.820776         0.511311        -1.354067
 C         2.629082         0.358102         0.940397
 H        -0.367813        -0.323588         1.087247
 H        -0.339684         1.214448         0.104256
 H        -0.421794        -0.429658        -0.731231
 H         1.404777        -1.872348         1.011920
 H         1.838997        -2.250885        -0.755009
 H         5.062202        -1.773530         1.315659
 H         4.777117         0.309498         0.085692
 H         3.847895         0.912464        -2.256302
 H         3.251255        -0.809157        -2.112714
 H         2.623562         1.160374         1.655780
