19
Iteration:  4190
 C         0.037746         0.117393         0.174733
 C         1.481389        -0.079076        -0.052420
 C         1.995502        -1.580826         0.006464
 C         3.303059        -1.119916         0.614043
 O         4.019154        -1.896390         1.516147
 C         3.797619         0.141759        -0.171093
 C         3.150376         0.267528        -1.565805
 O         1.757241         0.483519        -1.358358
 C         2.707472         0.281321         0.875740
 H        -0.362552        -0.549325         0.905926
 H        -0.206456         1.212861         0.396653
 H        -0.724221         0.034185        -0.656072
 H         1.420673        -1.998669         0.817035
 H         1.966748        -2.203547        -0.871093
 H         3.929631        -2.786265         1.127692
 H         4.680288         0.607798         0.110416
 H         3.460064         1.203675        -2.066077
 H         3.190518        -0.633434        -2.118259
 H         2.691419         1.134851         1.622235
