19
Iteration:  2984charge 0 multiplicity 1
 C        -0.011883         0.164329         0.154098
 C         1.447728        -0.129002        -0.082210
 C         1.976103        -1.581487         0.074787
 C         3.243000        -1.028599         0.643066
 O         4.136477        -1.973088         1.192398
 C         3.711848         0.243187        -0.067733
 C         3.229682         0.290028        -1.446785
 O         1.804658         0.356051        -1.444150
 C         2.586352         0.275945         0.980440
 H        -0.237256        -0.096065         1.225459
 H        -0.221840         1.355070         0.150936
 H        -0.722964        -0.236289        -0.610667
 H         1.350099        -1.932896         0.844710
 H         1.928855        -2.334041        -0.707271
 H         4.381498        -1.662048         2.075569
 H         4.855235         0.454932         0.178931
 H         3.601213         1.160293        -1.961775
 H         3.528454        -0.736253        -1.740465
 H         2.427464         0.832908         1.857191
