19
Iteration:  3864charge 0 multiplicity 1
 C         0.053993         0.127238         0.174677
 C         1.470839        -0.100294        -0.088122
 C         1.863922        -1.637500         0.028115
 C         3.191141        -1.078373         0.671125
 O         4.124469        -1.877201         1.347267
 C         3.791716         0.139537        -0.110047
 C         3.244675         0.238150        -1.505888
 O         1.795961         0.528695        -1.295360
 C         2.612965         0.271114         0.895463
 H        -0.336309        -0.282039         1.198043
 H        -0.218635         1.230472         0.010232
 H        -0.530118        -0.292366        -0.729620
 H         1.237751        -2.054651         0.730256
 H         2.015462        -2.163583        -0.877924
 H         4.542200        -2.343292         0.598185
 H         4.773376         0.481647         0.205621
 H         3.402699         1.141229        -2.100339
 H         3.326522        -0.718741        -2.127602
 H         2.453294         0.815767         1.853776
