19
Iteration:   320charge 0 multiplicity 1
 C         0.015795         0.268590         0.302205
 C         1.491684        -0.229057        -0.158184
 C         1.987409        -1.664398        -0.040051
 C         3.283656        -1.084080         0.607993
 O         3.995912        -1.816667         1.564758
 C         3.724094         0.092794        -0.089110
 C         3.239389         0.456533        -1.475795
 O         1.746678         0.334829        -1.548439
 C         2.621031         0.147411         0.819713
 H        -0.092423        -0.031851         1.342422
 H        -0.059562         1.352802         0.212096
 H        -0.746757        -0.198856        -0.174709
 H         1.370905        -2.240011         0.747278
 H         2.095362        -2.260092        -1.004551
 H         4.975142        -1.735614         1.517150
 H         4.573290         0.687125         0.232236
 H         3.571875         1.421739        -1.762516
 H         3.654953        -0.222417        -2.261801
 H         2.551952         0.825319         1.652270
