19
Iteration:  1076
 C         0.053694         0.139949         0.296584
 C         1.470075        -0.163054        -0.132230
 C         1.929731        -1.644674         0.051427
 C         3.237693        -1.140036         0.582627
 O         4.069957        -1.753288         1.539185
 C         3.708368         0.086553        -0.189067
 C         3.246472         0.503923        -1.548716
 O         1.773422         0.334178        -1.437014
 C         2.677564         0.243878         0.811874
 H        -0.272963        -0.545885         1.094106
 H        -0.135639         1.151920         0.695299
 H        -0.667261        -0.109951        -0.576164
 H         1.352104        -2.177570         0.826162
 H         2.075382        -2.231471        -0.913537
 H         3.800147        -2.642562         1.773534
 H         4.742830         0.236770         0.002780
 H         3.586625         1.570146        -1.768182
 H         3.641777        -0.186949        -2.358073
 H         2.642076         1.076294         1.484552
