19
Iteration:  3183charge 0 multiplicity 1
 C         0.048019         0.175054         0.203569
 C         1.451921        -0.208572        -0.071539
 C         1.931167        -1.650213         0.041062
 C         3.214989        -1.038605         0.543301
 O         4.018037        -1.852634         1.355143
 C         3.749325         0.136476        -0.091061
 C         3.244843         0.473027        -1.419851
 O         1.822049         0.294313        -1.364265
 C         2.628641         0.315270         0.868940
 H        -0.100692        -0.028368         1.298265
 H        -0.174944         1.194991        -0.102451
 H        -0.679310        -0.548538        -0.255039
 H         1.476043        -2.136969         0.811674
 H         1.992762        -2.222301        -0.854475
 H         4.429393        -2.558591         0.823675
 H         4.732625         0.292036         0.121550
 H         3.419770         1.453604        -1.772108
 H         3.715585        -0.035421        -2.258740
 H         2.657837         0.844027         1.808590
