19
Iteration:  3658charge 0 multiplicity 1
 C         0.112274         0.209997         0.460026
 C         1.444049        -0.250555        -0.183631
 C         2.007872        -1.709306        -0.169226
 C         3.283861        -1.130761         0.539759
 O         3.894389        -1.807227         1.622944
 C         3.747926         0.126669        -0.178216
 C         3.294070         0.525946        -1.567781
 O         1.779452         0.408110        -1.387690
 C         2.605528         0.197652         0.773665
 H         0.311748         0.033548         1.518803
 H        -0.102219         1.256767         0.466561
 H        -0.737505        -0.253193         0.060617
 H         1.383360        -2.185377         0.708853
 H         2.092767        -2.351636        -1.147867
 H         4.399155        -2.526743         1.185237
 H         4.677741         0.472730         0.138328
 H         3.407934         1.646439        -1.712313
 H         3.498756        -0.095920        -2.522292
 H         2.475130         0.504757         1.810296
