19
Iteration:  3407
 C        -0.006884         0.088444         0.292243
 C         1.447885        -0.119208        -0.093423
 C         1.934190        -1.623830        -0.076023
 C         3.278475        -1.130850         0.647128
 O         4.011753        -1.859767         1.580654
 C         3.815216         0.169114        -0.141046
 C         3.189569         0.404494        -1.620780
 O         1.802172         0.467042        -1.437170
 C         2.675730         0.227810         0.876389
 H        -0.314436        -0.531021         1.190649
 H        -0.107269         1.175019         0.686426
 H        -0.726296        -0.224168        -0.520724
 H         1.411992        -2.357448         0.571382
 H         1.979391        -2.074503        -1.009868
 H         4.436600        -2.548466         1.046867
 H         4.768009         0.611042         0.089529
 H         3.457108         1.371891        -2.010365
 H         3.466664        -0.522947        -2.252919
 H         2.734756         0.948419         1.670866
