19
Iteration:  2817
 C         0.022682         0.194634         0.082922
 C         1.466104        -0.155651        -0.060639
 C         1.842195        -1.613659         0.113167
 C         3.214170        -1.145864         0.641183
 O         4.265773        -1.827845         1.347255
 C         3.720195         0.121425        -0.133195
 C         3.180718         0.406797        -1.520041
 O         1.740737         0.352521        -1.351743
 C         2.703273         0.264044         0.898643
 H        -0.469903        -0.158405         1.018740
 H        -0.143375         1.264179        -0.143395
 H        -0.383551        -0.070219        -0.866377
 H         1.296175        -2.104494         0.933501
 H         1.636323        -2.217977        -0.723546
 H         3.866730        -2.304068         2.096277
 H         4.756533         0.322267         0.176341
 H         3.430794         1.337462        -1.982187
 H         3.491785        -0.380305        -2.275618
 H         2.770630         0.806164         1.937835
