19
Iteration:  1455charge 0 multiplicity 1
 C         0.059921         0.108811         0.301476
 C         1.478620        -0.085196        -0.143752
 C         1.946508        -1.553580        -0.048314
 C         3.229286        -1.078962         0.656884
 O         4.070140        -1.837552         1.459808
 C         3.736079         0.027552        -0.169757
 C         3.232350         0.248436        -1.596754
 O         1.833333         0.454534        -1.375936
 C         2.576771         0.272421         0.866159
 H         0.064148        -0.332046         1.360610
 H        -0.317519         1.150518         0.288513
 H        -0.640274        -0.521992        -0.259728
 H         1.328308        -2.021912         0.674601
 H         2.029824        -2.180322        -0.941394
 H         3.829286        -1.661375         2.384743
 H         4.654330         0.447486         0.170421
 H         3.596652         1.155126        -2.227421
 H         3.454338        -0.667433        -2.176121
 H         2.575476         1.237165         1.354872
