19
Iteration:  4964
 C        -0.006130         0.370496         0.154841
 C         1.497115        -0.142026        -0.020095
 C         1.835086        -1.665345         0.257633
 C         3.146782        -1.116487         0.674073
 O         4.205335        -1.847748         1.322892
 C         3.699811         0.012673        -0.182703
 C         3.258630         0.391425        -1.535137
 O         1.821023         0.262667        -1.485213
 C         2.656698         0.336234         0.852622
 H        -0.407597        -0.281349         0.867009
 H         0.112827         1.442567         0.230552
 H        -0.419970         0.100989        -0.875260
 H         1.281525        -2.047600         1.101358
 H         1.696703        -2.373632        -0.624385
 H         3.914301        -2.353514         2.102022
 H         4.699567         0.426283         0.090843
 H         3.477914         1.440283        -1.866017
 H         3.514417        -0.318225        -2.292761
 H         2.798384         0.827751         1.808272
