19
Iteration:  2879charge 0 multiplicity 1
 C         0.123864         0.117203         0.414940
 C         1.498838        -0.078965        -0.147477
 C         2.027262        -1.588521        -0.110518
 C         3.174904        -1.084292         0.675373
 O         4.054271        -1.820749         1.469956
 C         3.660718         0.124473        -0.120916
 C         3.176664         0.283244        -1.604144
 O         1.798527         0.447871        -1.457440
 C         2.641662         0.245825         0.881902
 H        -0.045846        -0.308231         1.403852
 H        -0.240253         1.127271         0.396612
 H        -0.568024        -0.585609        -0.257912
 H         1.384919        -2.241777         0.523945
 H         2.245318        -1.962987        -1.171368
 H         3.551949        -2.407347         2.059436
 H         4.766587         0.335591         0.081994
 H         3.625024         1.156331        -2.196954
 H         3.524631        -0.534265        -2.316268
 H         2.605847         0.918147         1.770133
