19
Iteration:  4714charge 0 multiplicity 1
 C         0.151365         0.224633         0.509209
 C         1.474535        -0.132582        -0.055607
 C         1.882321        -1.735899        -0.146281
 C         3.157340        -1.204342         0.554014
 O         3.909732        -1.749198         1.596182
 C         3.785476         0.073148        -0.259466
 C         3.281772         0.526085        -1.593652
 O         1.805833         0.323713        -1.464158
 C         2.713951         0.195031         0.731980
 H         0.191951        -0.002091         1.583608
 H         0.094630         1.318681         0.366508
 H        -0.699086        -0.430493        -0.043665
 H         1.266051        -2.287790         0.558257
 H         2.052925        -2.102097        -1.067382
 H         3.646794        -1.505082         2.492943
 H         4.735313         0.225499         0.099502
 H         3.508891         1.524982        -1.970244
 H         3.792887        -0.149878        -2.379972
 H         2.735944         0.609021         1.723595
