19
Iteration:   142charge 0 multiplicity 1
 C         0.011535         0.067373         0.160351
 C         1.509595        -0.104755        -0.085240
 C         1.903896        -1.520181         0.000908
 C         3.258852        -1.112233         0.712355
 O         4.062816        -1.932211         1.494688
 C         3.732473         0.182049        -0.166130
 C         3.240656         0.353397        -1.583512
 O         1.814397         0.368499        -1.364162
 C         2.590067         0.310227         0.876968
 H        -0.273271        -0.162291         1.155599
 H        -0.296424         1.060915         0.124292
 H        -0.635262        -0.505025        -0.444989
 H         1.246047        -1.962041         0.757020
 H         1.993361        -2.090486        -0.987453
 H         4.861536        -2.044115         0.978429
 H         4.685098         0.572329         0.315875
 H         3.577152         1.205823        -2.108198
 H         3.461873        -0.511995        -2.243381
 H         2.519773         1.093421         1.748381
