19
Iteration:  2548
 C        -0.114009         0.059470         0.257513
 C         1.397026        -0.066806        -0.122113
 C         1.955550        -1.594902         0.047669
 C         3.252340        -1.054520         0.627101
 O         4.159563        -1.913130         1.360201
 C         3.792253         0.174629        -0.172009
 C         3.284436         0.133030        -1.560914
 O         1.824175         0.545497        -1.374358
 C         2.608204         0.368224         0.868389
 H        -0.266392        -0.386653         1.304369
 H        -0.366311         1.178241         0.326861
 H        -0.739710        -0.576858        -0.354945
 H         1.437807        -2.170186         0.776974
 H         2.129485        -2.173280        -0.876375
 H         3.803617        -2.034234         2.273177
 H         4.718495         0.384985         0.246074
 H         3.748350         0.914356        -2.160452
 H         3.264452        -0.892289        -1.976200
 H         2.568497         1.167899         1.676000
