19
Iteration:  2340charge 0 multiplicity 1
 C         0.108790         0.105425         0.488138
 C         1.455883        -0.160801        -0.133632
 C         2.024787        -1.639256        -0.087039
 C         3.256286        -1.096533         0.671111
 O         3.905482        -1.825513         1.673132
 C         3.767948         0.077956        -0.236983
 C         3.207985         0.407742        -1.626935
 O         1.738537         0.453894        -1.516976
 C         2.667974         0.288958         0.725945
 H        -0.096997        -0.518936         1.388847
 H         0.094639         1.199071         0.770376
 H        -0.614147        -0.187232        -0.154943
 H         1.603899        -2.208838         0.765854
 H         2.281979        -2.159117        -1.062441
 H         4.216288        -2.649069         1.268987
 H         4.936459         0.363024        -0.080670
 H         3.514025         1.403191        -1.856912
 H         3.453485        -0.324969        -2.428965
 H         2.561242         0.982729         1.650109
