19
Iteration:  1834
 C         0.036359         0.215229         0.269973
 C         1.426824        -0.177069        -0.112511
 C         1.919899        -1.660470        -0.035186
 C         3.310579        -1.188942         0.588590
 O         4.157213        -1.780626         1.581408
 C         3.743310         0.040817        -0.239812
 C         3.216004         0.374594        -1.587481
 O         1.740954         0.454533        -1.381678
 C         2.604726         0.197181         0.785726
 H        -0.046480         0.027873         1.358559
 H         0.109128         1.288592         0.180821
 H        -0.731099        -0.221604        -0.334366
 H         1.395760        -2.202383         0.705290
 H         1.950827        -2.226553        -0.927475
 H         3.623701        -1.784527         2.397664
 H         4.685046         0.486104         0.135980
 H         3.602358         1.430446        -1.674029
 H         3.472573        -0.241328        -2.393084
 H         2.618808         0.791116         1.683861
