19
Iteration:  3318
 C         0.005959         0.247837         0.191631
 C         1.441979        -0.118932        -0.097499
 C         1.988800        -1.672434        -0.013257
 C         3.161505        -1.074080         0.717335
 O         4.140723        -1.839907         1.315363
 C         3.730167         0.138000        -0.052216
 C         3.259192         0.389243        -1.472350
 O         1.786764         0.286804        -1.378051
 C         2.548381         0.276816         0.912431
 H        -0.370770         0.169263         1.199531
 H         0.077099         1.309172        -0.190350
 H        -0.699226        -0.412856        -0.350086
 H         1.572552        -2.395869         0.665851
 H         2.071448        -2.190354        -0.901090
 H         4.524218        -2.293515         0.554069
 H         4.723358         0.381755         0.308830
 H         3.521576         1.387351        -1.780187
 H         3.650612        -0.433193        -2.249512
 H         2.594750         0.840395         1.883689
