19
Iteration:   681
 C        -0.010449         0.246599         0.262359
 C         1.460615        -0.245763        -0.100497
 C         1.977840        -1.624281        -0.050239
 C         3.241579        -1.035025         0.640501
 O         4.132751        -1.845255         1.428057
 C         3.769736         0.188198        -0.114171
 C         3.247666         0.341876        -1.531116
 O         1.830190         0.281913        -1.426239
 C         2.531523         0.256254         0.885953
 H        -0.407838        -0.328750         1.147665
 H        -0.002700         1.303966         0.581773
 H        -0.698151         0.158933        -0.603335
 H         1.297033        -2.188818         0.549788
 H         2.166603        -2.150302        -0.987362
 H         3.566966        -2.395520         1.998378
 H         4.545954         0.896226         0.295840
 H         3.410358         1.345008        -2.030790
 H         3.540096        -0.419576        -2.250108
 H         2.701145         1.001693         1.718182
