19
Iteration:   675charge 0 multiplicity 1
 C         0.028296         0.275674         0.259359
 C         1.430252        -0.184139        -0.121338
 C         1.979334        -1.656884        -0.064354
 C         3.266126        -1.067947         0.637727
 O         4.127838        -1.832761         1.458921
 C         3.795043         0.170639        -0.115134
 C         3.232593         0.423266        -1.508249
 O         1.783213         0.237685        -1.449472
 C         2.547857         0.231482         0.891768
 H        -0.137232        -0.401690         1.083654
 H         0.151348         1.344748         0.454208
 H        -0.750755         0.072243        -0.539763
 H         1.317233        -2.279323         0.612164
 H         2.113132        -2.142529        -1.044067
 H         3.518589        -2.312982         2.073909
 H         4.605118         0.752743         0.257135
 H         3.293633         1.404259        -1.935259
 H         3.565437        -0.414206        -2.189867
 H         2.539831         0.937913         1.681801
