19
Iteration:  1651charge 0 multiplicity 1
 C        -0.056090         0.044809         0.207513
 C         1.450023        -0.019791        -0.050080
 C         1.969640        -1.567115         0.076142
 C         3.266585        -1.044997         0.656045
 O         4.135984        -1.881582         1.431941
 C         3.756209         0.018158        -0.171018
 C         3.240526         0.186709        -1.541428
 O         1.785843         0.481414        -1.370579
 C         2.612527         0.439669         0.775564
 H        -0.344651        -0.307760         1.189977
 H        -0.421365         1.074584         0.284151
 H        -0.513080        -0.556697        -0.588448
 H         1.382372        -2.029872         0.866301
 H         2.051221        -2.138907        -0.861256
 H         3.727012        -2.687643         1.764359
 H         4.725798         0.579987         0.015442
 H         3.559694         1.027561        -2.057583
 H         3.410902        -0.718753        -2.194539
 H         2.945007         1.229342         1.533707
