19
Iteration:  4175
 C        -0.024673         0.046765         0.199261
 C         1.492099        -0.124863        -0.094893
 C         1.952109        -1.586849         0.076933
 C         3.261304        -0.999423         0.613093
 O         3.961271        -1.874188         1.449422
 C         3.819818         0.109960        -0.193692
 C         3.202993         0.233037        -1.611327
 O         1.811834         0.584086        -1.287553
 C         2.667852         0.338878         0.856510
 H        -0.314406        -0.566775         1.137403
 H        -0.243662         1.073437         0.571596
 H        -0.222216        -0.380033        -0.793685
 H         1.491887        -2.060273         1.011823
 H         2.085330        -2.145813        -0.839765
 H         3.986026        -2.772107         1.027191
 H         4.977881         0.333143        -0.010046
 H         3.618811         0.925391        -2.304554
 H         3.236898        -0.840966        -2.014400
 H         2.693174         0.634586         1.844436
