19
Iteration:  4741charge 0 multiplicity 1
 C         0.086810         0.172485         0.328840
 C         1.471960        -0.082667        -0.085376
 C         1.972832        -1.603134        -0.001816
 C         3.290296        -1.093870         0.594070
 O         3.967934        -1.913742         1.526025
 C         3.818967        -0.005634        -0.198920
 C         3.141446         0.352768        -1.544872
 O         1.765557         0.436582        -1.440791
 C         2.683984         0.344558         0.747893
 H         0.175155         0.020616         1.442274
 H        -0.132450         1.238302         0.218418
 H        -0.455214        -0.511128        -0.218449
 H         1.386723        -2.191559         0.783495
 H         2.035218        -2.178261        -1.086199
 H         3.403938        -2.303886         2.202193
 H         4.844299         0.403954         0.060113
 H         3.577221         1.312208        -1.884284
 H         3.409178        -0.420077        -2.223437
 H         2.564897         1.001281         1.624608
