19
Iteration:  2891charge 0 multiplicity 1
 C         0.064505         0.104722         0.395796
 C         1.474799        -0.181085        -0.093494
 C         2.011989        -1.632946        -0.112120
 C         3.220794        -1.097640         0.595512
 O         3.998714        -1.751751         1.484312
 C         3.828144         0.027534        -0.207811
 C         3.261454         0.366835        -1.552926
 O         1.742368         0.445585        -1.406361
 C         2.599763         0.279792         0.812066
 H         0.077554        -0.155954         1.474106
 H         0.002622         1.207063         0.385320
 H        -0.860167        -0.289172        -0.202350
 H         1.331326        -2.260073         0.509927
 H         2.193291        -2.236611        -1.017506
 H         3.447188        -2.252041         2.124255
 H         4.765152         0.510744         0.088416
 H         3.612112         1.367693        -1.862709
 H         3.443694        -0.498267        -2.234987
 H         2.733468         0.853117         1.803181
