19
Iteration:  4667
 C         0.011047         0.284426         0.239779
 C         1.461940        -0.148617        -0.069105
 C         1.950108        -1.713253         0.071430
 C         3.201222        -1.124485         0.662060
 O         4.075296        -1.981067         1.436497
 C         3.777166         0.128806        -0.184170
 C         3.174062         0.342054        -1.599683
 O         1.796495         0.430063        -1.414464
 C         2.652843         0.305720         0.877098
 H        -0.349413        -0.339495         1.088652
 H         0.029491         1.389005         0.413085
 H        -0.474178        -0.075169        -0.717956
 H         1.332182        -2.247631         0.725166
 H         2.125370        -2.045318        -0.921470
 H         4.345424        -1.472736         2.240441
 H         4.870738         0.382431         0.061730
 H         3.473250         1.350837        -2.077097
 H         3.618210        -0.376544        -2.417898
 H         2.477550         1.095676         1.649446
