19
Iteration:  3054
 C         0.211537         0.015831         0.365652
 C         1.563025        -0.174271        -0.146768
 C         1.958514        -1.641763        -0.096497
 C         3.228218        -1.169169         0.560158
 O         3.864107        -1.861782         1.616021
 C         3.762357         0.110147        -0.218184
 C         3.174288         0.491547        -1.580753
 O         1.753100         0.508438        -1.372402
 C         2.687823         0.227728         0.797761
 H         0.027188        -0.349560         1.389016
 H        -0.022237         1.066554         0.321143
 H        -0.439691        -0.429638        -0.458692
 H         1.336935        -2.257900         0.658810
 H         1.983751        -2.265503        -1.068788
 H         4.361052        -1.204649         2.125059
 H         4.733432         0.359886        -0.111016
 H         3.476634         1.528904        -1.939584
 H         3.231724        -0.322974        -2.271086
 H         2.542429         0.955583         1.647878
