19
Iteration:   285charge 0 multiplicity 1
 C        -0.080069         0.079744         0.063870
 C         1.385617        -0.126459        -0.004114
 C         1.965232        -1.628026         0.090413
 C         3.239481        -1.076598         0.728284
 O         4.053461        -1.917784         1.348846
 C         3.742161         0.093648        -0.156964
 C         3.249316         0.294289        -1.561686
 O         1.846354         0.504283        -1.293778
 C         2.661984         0.363289         0.877963
 H        -0.542581         0.046166         1.024151
 H        -0.399144         1.000487        -0.455017
 H        -0.475394        -0.676548        -0.585166
 H         1.532949        -2.245133         0.836647
 H         2.122716        -2.188259        -0.888634
 H         4.983227        -1.599984         1.408440
 H         4.675995         0.402855         0.257072
 H         3.781894         1.104707        -1.944980
 H         3.376257        -0.655090        -2.169866
 H         2.718413         1.180110         1.556173
