19
Iteration:   135
 C         0.025630         0.066708         0.120504
 C         1.527957        -0.050016        -0.095569
 C         1.885128        -1.524620         0.016797
 C         3.243203        -1.107073         0.726953
 O         4.115432        -1.950131         1.476278
 C         3.723040         0.200142        -0.107231
 C         3.190477         0.287906        -1.561452
 O         1.780075         0.399340        -1.372086
 C         2.630464         0.344559         0.886675
 H        -0.290121        -0.270381         1.143770
 H        -0.399918         1.147950        -0.049423
 H        -0.507340        -0.633867        -0.537226
 H         1.102447        -2.141536         0.516032
 H         2.004589        -2.138156        -0.897906
 H         4.881793        -2.254339         0.961165
 H         4.659333         0.645411         0.248826
 H         3.576325         1.171743        -2.170537
 H         3.516982        -0.601370        -2.106200
 H         2.557719         1.028733         1.759326
