19
Iteration:  4797charge 0 multiplicity 1
 C        -0.038045         0.361041         0.072955
 C         1.414092        -0.080486        -0.009551
 C         1.824022        -1.572242         0.100689
 C         3.219237        -1.179239         0.589376
 O         4.266777        -1.807443         1.196465
 C         3.776186         0.096409        -0.066039
 C         3.236619         0.134975        -1.469525
 O         1.776793         0.356202        -1.321273
 C         2.674868         0.317604         0.947816
 H        -0.515814        -0.190343         0.892478
 H        -0.061626         1.460638        -0.012467
 H        -0.432262         0.011988        -0.909259
 H         1.188956        -2.066314         0.921556
 H         1.549157        -2.530433        -0.707693
 H         3.902206        -2.183898         2.026825
 H         4.701031         0.375396         0.315154
 H         3.730316         0.948671        -2.057558
 H         3.475043        -0.787293        -1.881969
 H         2.631631         0.998393         1.782279
