19
Iteration:   490charge 0 multiplicity 1
 C         0.107486         0.201958         0.300204
 C         1.464331        -0.189081        -0.130688
 C         1.936993        -1.718273         0.042811
 C         3.215118        -1.189908         0.631922
 O         4.055338        -1.923472         1.605450
 C         3.766607         0.190336        -0.170925
 C         3.167392         0.634771        -1.558287
 O         1.771181         0.215837        -1.552311
 C         2.697094         0.260662         0.789750
 H        -0.227655        -0.204257         1.225487
 H         0.174744         1.289946         0.340556
 H        -0.668143         0.034981        -0.480158
 H         1.124315        -2.332737         0.614566
 H         2.058227        -2.107920        -1.026278
 H         4.161344        -1.310004         2.372457
 H         4.815042         0.463100         0.079728
 H         3.225403         1.773671        -1.590922
 H         3.611416         0.111672        -2.410380
 H         2.383561         1.048814         1.528960
