19
Iteration:  4590
 C         0.065288         0.260639         0.281245
 C         1.466595        -0.105771        -0.104889
 C         1.969835        -1.667284        -0.037515
 C         3.205803        -1.093532         0.649638
 O         4.031287        -1.867162         1.464931
 C         3.770359         0.018952        -0.120946
 C         3.240398         0.356168        -1.504535
 O         1.742508         0.422439        -1.429283
 C         2.615043         0.261376         0.870648
 H        -0.138639        -0.028098         1.381326
 H        -0.161679         1.287314        -0.164759
 H        -0.674742        -0.485488        -0.283975
 H         1.430497        -2.121176         0.746793
 H         1.967777        -2.194952        -0.969318
 H         4.800438        -2.204709         0.968303
 H         4.827294         0.289562         0.178672
 H         3.739614         1.335564        -1.750756
 H         3.466373        -0.410055        -2.325370
 H         2.496806         1.031570         1.615261
