19
Iteration:  2630
 C         0.152742         0.298935         0.302115
 C         1.459283        -0.295331        -0.150219
 C         1.895184        -1.686535         0.051571
 C         3.161658        -1.075189         0.634859
 O         4.142606        -1.776237         1.409608
 C         3.721880         0.176484        -0.139204
 C         3.151220         0.495179        -1.524206
 O         1.822199         0.153690        -1.509560
 C         2.624358         0.316280         0.910433
 H         0.005982        -0.051481         1.314839
 H         0.178140         1.360656         0.316288
 H        -0.737622         0.180922        -0.363371
 H         1.199583        -2.153702         0.893621
 H         1.872510        -2.451846        -0.750301
 H         3.811743        -2.584737         1.816441
 H         4.756596         0.310415         0.013270
 H         3.368815         1.573131        -1.745341
 H         3.811696        -0.069304        -2.290084
 H         2.444263         0.833565         1.727130
