19
Iteration:  2805charge 0 multiplicity 1
 C         0.007258         0.295494         0.066616
 C         1.458867        -0.139644        -0.009280
 C         1.850336        -1.650565         0.106497
 C         3.267483        -1.168923         0.608785
 O         4.255996        -1.793073         1.342266
 C         3.767304         0.054874        -0.134687
 C         3.136596         0.423828        -1.444921
 O         1.764349         0.289591        -1.395654
 C         2.637117         0.221678         0.824573
 H        -0.525973        -0.125919         0.976303
 H         0.006827         1.365596         0.274400
 H        -0.607693        -0.309186        -0.627690
 H         1.185719        -1.937172         0.924443
 H         1.932568        -2.250990        -0.725886
 H         3.920977        -2.220748         2.149255
 H         4.853815         0.375641         0.132387
 H         3.377086         1.497433        -1.406755
 H         3.590973        -0.105304        -2.317125
 H         2.588708         1.069072         1.621536
