19
Iteration:  4303charge 0 multiplicity 1
 C         0.007219         0.151326         0.145519
 C         1.522987        -0.089130        -0.019852
 C         1.927204        -1.511460         0.046628
 C         3.242541        -1.051287         0.690566
 O         4.054041        -2.057982         1.328449
 C         3.758466         0.079789        -0.155852
 C         3.215515         0.238104        -1.551644
 O         1.748618         0.464020        -1.318585
 C         2.627246         0.394187         0.917033
 H        -0.290641        -0.254934         1.129019
 H        -0.165214         1.090739        -0.315388
 H        -0.413934        -0.550497        -0.562542
 H         1.270009        -1.943010         0.734305
 H         1.956673        -2.245175        -0.793559
 H         4.873732        -1.622779         1.591046
 H         4.798527         0.482282         0.194834
 H         3.726332         1.157497        -1.968414
 H         3.317084        -0.661086        -2.158000
 H         2.606016         1.258829         1.492383
