19
Iteration:  3398charge 0 multiplicity 1
 C         0.013933         0.112386         0.297723
 C         1.476757        -0.124100        -0.066220
 C         1.922054        -1.615875        -0.054927
 C         3.242585        -1.126258         0.690037
 O         4.028268        -1.901225         1.593875
 C         3.782011         0.151620        -0.193117
 C         3.204332         0.479573        -1.559990
 O         1.758323         0.371242        -1.445012
 C         2.701070         0.235043         0.800284
 H        -0.128894        -0.426864         1.288342
 H        -0.344699         1.173023         0.382515
 H        -0.499770        -0.099360        -0.644226
 H         1.226767        -2.261840         0.557858
 H         2.121657        -1.868055        -1.064542
 H         4.611081        -2.483744         1.087355
 H         4.786986         0.633093         0.121787
 H         3.601073         1.462183        -1.804266
 H         3.418306        -0.124395        -2.557123
 H         2.645860         0.873640         1.659583
