19
Iteration:   655charge 0 multiplicity 1
 C         0.101515         0.285793         0.306851
 C         1.530077        -0.263285        -0.124930
 C         1.992640        -1.735414        -0.016405
 C         3.198388        -1.176555         0.546391
 O         4.096392        -1.758225         1.522736
 C         3.713305         0.080121        -0.115355
 C         3.188672         0.544222        -1.462482
 O         1.779345         0.288605        -1.531080
 C         2.590407         0.256086         0.814141
 H        -0.178453         0.055244         1.335330
 H         0.022182         1.365527         0.075378
 H        -0.577027        -0.197833        -0.356420
 H         1.301279        -2.309950         0.755400
 H         2.113308        -2.376946        -0.982745
 H         3.564395        -1.962357         2.317950
 H         4.732338         0.261858         0.108296
 H         3.221019         1.678540        -1.388209
 H         3.587600         0.141568        -2.513815
 H         2.567202         0.710717         1.761381
