19
Iteration:  1185
 C        -0.024498         0.082082         0.017797
 C         1.469491        -0.001245        -0.047711
 C         1.911559        -1.608194         0.151056
 C         3.216310        -1.147902         0.682609
 O         4.263654        -1.817247         1.273925
 C         3.658795         0.117622        -0.088560
 C         3.178379         0.201789        -1.492569
 O         1.790645         0.531537        -1.349190
 C         2.685394         0.306169         0.946121
 H        -0.391479        -0.333576         0.956340
 H        -0.544201         0.987020        -0.225692
 H        -0.446522        -0.423281        -0.869215
 H         1.243160        -2.073161         0.811403
 H         1.941380        -2.232957        -0.677424
 H         3.860967        -2.531188         1.813398
 H         4.763253         0.282725         0.097533
 H         3.666301         0.916565        -2.087357
 H         3.257763        -0.719666        -2.046754
 H         2.785289         1.058961         1.774664
