19
Iteration:  1186charge 0 multiplicity 1
 C        -0.027086         0.081075         0.013048
 C         1.470792        -0.004176        -0.042016
 C         1.911997        -1.599922         0.157314
 C         3.217737        -1.149012         0.674987
 O         4.262106        -1.814543         1.276880
 C         3.666896         0.111008        -0.091042
 C         3.173605         0.209403        -1.485975
 O         1.791574         0.527953        -1.352306
 C         2.682430         0.303046         0.944874
 H        -0.386450        -0.362998         0.979191
 H        -0.525113         1.023092        -0.211782
 H        -0.446954        -0.413959        -0.891881
 H         1.248038        -2.090149         0.826339
 H         1.969945        -2.228821        -0.699702
 H         3.855052        -2.536555         1.812328
 H         4.763126         0.266908         0.121243
 H         3.679453         0.921151        -2.115660
 H         3.199714        -0.711285        -2.059219
 H         2.777721         1.064934         1.759447
