19
Iteration:  1921charge 0 multiplicity 1
 C        -0.041622         0.223107         0.102430
 C         1.462004        -0.090458         0.010888
 C         1.912136        -1.651188         0.147663
 C         3.203343        -1.068096         0.635278
 O         4.190021        -1.802262         1.227246
 C         3.712442         0.113666        -0.101019
 C         3.250250         0.267037        -1.556086
 O         1.842888         0.329018        -1.355888
 C         2.636145         0.302757         0.951299
 H        -0.424124        -0.091782         1.128150
 H        -0.226918         1.313648        -0.047689
 H        -0.785206        -0.249361        -0.622328
 H         1.362802        -2.048183         0.975370
 H         1.917294        -2.341447        -0.673077
 H         3.741473        -2.412897         1.862385
 H         4.747893         0.277833         0.066727
 H         3.607799         1.226946        -2.015175
 H         3.514047        -0.583593        -2.166930
 H         2.552493         1.071347         1.628071
