19
Iteration:  1237charge 0 multiplicity 1
 C         0.148857         0.193494         0.353168
 C         1.469954        -0.198127        -0.122987
 C         2.006012        -1.664823        -0.068580
 C         3.263949        -1.108887         0.632441
 O         4.051583        -1.804691         1.525053
 C         3.776367         0.102801        -0.093224
 C         3.193113         0.441382        -1.568268
 O         1.709530         0.334028        -1.546534
 C         2.586278         0.254865         0.847515
 H        -0.267050        -0.453300         1.056263
 H         0.255608         1.215278         0.815728
 H        -0.579523         0.286634        -0.470592
 H         1.421258        -2.294176         0.685130
 H         1.980030        -2.211313        -1.094209
 H         3.548472        -1.866406         2.353897
 H         4.828596         0.432045         0.200781
 H         3.380940         1.419808        -2.045416
 H         3.584024        -0.384912        -2.344362
 H         2.477506         0.884922         1.784248
