19
Iteration:   506charge 0 multiplicity 1
 C         0.053344         0.282619         0.247068
 C         1.483729        -0.205487        -0.140478
 C         1.990714        -1.700001        -0.006047
 C         3.275333        -1.108546         0.642162
 O         4.043292        -1.826766         1.563734
 C         3.774505         0.022342        -0.262041
 C         3.161749         0.593528        -1.515983
 O         1.789392         0.229410        -1.451435
 C         2.611192         0.233712         0.798755
 H        -0.324074        -0.499604         1.015872
 H        -0.076483         1.335784         0.672688
 H        -0.690218         0.122385        -0.553655
 H         1.587625        -2.112902         0.837687
 H         2.049680        -2.364929        -0.809458
 H         3.688627        -1.821588         2.499019
 H         4.731282         0.440601        -0.009218
 H         3.245026         1.658491        -1.435156
 H         3.597166         0.322139        -2.496518
 H         2.804859         0.797877         1.678055
