19
Iteration:   399charge 0 multiplicity 1
 C        -0.088900         0.046733         0.078100
 C         1.484619        -0.158799        -0.068868
 C         1.961190        -1.655206         0.048805
 C         3.250901        -1.076295         0.667753
 O         4.091633        -1.770046         1.524176
 C         3.816839         0.124440        -0.184063
 C         3.187567         0.302734        -1.558303
 O         1.791864         0.549849        -1.276573
 C         2.658339         0.243809         0.819651
 H        -0.619287        -0.277130         0.951656
 H        -0.192488         1.089004        -0.030969
 H        -0.477119        -0.332961        -0.842112
 H         1.570015        -2.404735         0.923925
 H         2.104402        -2.341022        -0.850086
 H         4.052681        -2.720298         1.284110
 H         4.829417         0.502850         0.079003
 H         3.517531         1.268356        -1.920409
 H         3.179806        -0.548747        -2.260401
 H         2.795369         1.120785         1.444514
