19
Iteration:  3585
 C        -0.058649         0.080929         0.203834
 C         1.405525        -0.046084        -0.088967
 C         1.943627        -1.621741        -0.012833
 C         3.283219        -1.118913         0.566593
 O         4.120606        -1.916530         1.525456
 C         3.802955         0.127625        -0.123772
 C         3.223859         0.241873        -1.548608
 O         1.776358         0.607025        -1.345231
 C         2.604874         0.247609         0.840269
 H        -0.382466        -0.587376         1.097502
 H        -0.380514         1.134151         0.413792
 H        -0.517917         0.011746        -0.820766
 H         1.599880        -2.027042         0.945675
 H         1.896729        -2.238463        -0.817653
 H         4.861707        -2.202856         0.940230
 H         4.695621         0.524458         0.173724
 H         3.564162         1.099847        -2.104971
 H         3.309097        -0.727235        -2.178291
 H         2.676541         0.786947         1.801021
