19
Iteration:   499
 C         0.051875         0.277819         0.284779
 C         1.488835        -0.235093        -0.154654
 C         1.954075        -1.673486        -0.000165
 C         3.248042        -1.123451         0.677168
 O         4.070450        -1.905612         1.600738
 C         3.738146         0.116925        -0.244703
 C         3.143374         0.600688        -1.525844
 O         1.796346         0.226229        -1.501550
 C         2.669008         0.249190         0.758412
 H        -0.197165        -0.312777         1.119241
 H        -0.025016         1.259887         0.620756
 H        -0.567180         0.017219        -0.595016
 H         1.397227        -2.389491         0.823040
 H         2.054660        -2.336399        -0.918461
 H         3.789478        -1.445260         2.431100
 H         4.734914         0.386213         0.066616
 H         3.207879         1.741319        -1.483510
 H         3.702990         0.349033        -2.543770
 H         2.655951         0.785383         1.711399
