19
Iteration:    45
 C         0.098707         0.200458         0.406432
 C         1.439341        -0.234750        -0.044970
 C         1.949737        -1.753381        -0.080132
 C         3.216672        -1.138271         0.581099
 O         3.902667        -1.796841         1.647164
 C         3.799575         0.081102        -0.227571
 C         3.265657         0.574662        -1.516034
 O         1.845185         0.241821        -1.483686
 C         2.600538         0.359758         0.711373
 H        -0.189983        -0.296601         1.318318
 H         0.020429         1.264604         0.643996
 H        -0.674125        -0.098226        -0.225628
 H         1.361457        -2.502408         0.470491
 H         2.103779        -2.146901        -1.138872
 H         4.721078        -2.108664         1.258830
 H         4.753345         0.558239         0.129990
 H         3.472681         1.615087        -1.719927
 H         3.677804        -0.017786        -2.339335
 H         2.479300         1.279584         1.393516
