19
Iteration:   159charge 0 multiplicity 1
 C        -0.004734         0.166156         0.288559
 C         1.451778        -0.186774        -0.116024
 C         1.983713        -1.703188         0.047543
 C         3.268431        -1.072621         0.578253
 O         3.939389        -1.814221         1.481950
 C         3.797538         0.090167        -0.144224
 C         3.249424         0.400276        -1.503316
 O         1.806684         0.395125        -1.461867
 C         2.600429         0.302010         0.824240
 H        -0.305316        -0.254307         1.315400
 H        -0.191528         1.308425         0.245723
 H        -0.773325        -0.429680        -0.416605
 H         1.557030        -2.441111         0.773287
 H         2.054210        -2.412039        -0.771708
 H         4.888493        -1.872549         1.380493
 H         4.746755         0.433812         0.190417
 H         3.631684         1.475127        -1.737880
 H         3.762384        -0.193872        -2.292138
 H         2.665426         0.890319         1.654704
