19
Iteration:  1405
 C         0.191727         0.297968         0.259925
 C         1.436208        -0.166826        -0.078217
 C         1.889035        -1.694566         0.008075
 C         3.344897        -1.156025         0.609056
 O         4.055751        -1.798998         1.604147
 C         3.736125         0.054287        -0.229489
 C         3.134692         0.502553        -1.563143
 O         1.789648         0.246219        -1.471243
 C         2.619870         0.260469         0.752056
 H        -0.264045        -0.317097         1.214420
 H         0.270812         1.396902         0.515364
 H        -0.660117        -0.116335        -0.415152
 H         1.401610        -2.401867         0.787481
 H         1.928643        -2.162142        -1.035663
 H         3.471450        -2.065060         2.333270
 H         4.640466         0.528279         0.087581
 H         3.332381         1.564121        -1.468686
 H         3.557327         0.206083        -2.592851
 H         2.709441         0.779771         1.708133
