19
Iteration:  4039
 C         0.000151         0.178428         0.080090
 C         1.457192        -0.118925        -0.062115
 C         1.914403        -1.618215         0.170249
 C         3.263560        -1.143588         0.600270
 O         4.106060        -1.868532         1.373757
 C         3.756717         0.081141        -0.131589
 C         3.225086         0.385321        -1.467842
 O         1.740073         0.437401        -1.331884
 C         2.684032         0.338151         0.857032
 H        -0.501265        -0.379099         0.848634
 H        -0.179287         1.184227         0.399683
 H        -0.441101        -0.129340        -0.849746
 H         1.466569        -2.130321         1.005504
 H         1.832163        -2.482811        -0.646173
 H         4.226519        -2.712409         0.907722
 H         4.838213         0.175499         0.016548
 H         3.465999         1.301127        -1.954010
 H         3.502536        -0.373172        -2.268475
 H         2.778617         0.974929         1.689334
