19
Iteration:   313
 C         0.087205         0.198504         0.196582
 C         1.423819        -0.189929        -0.175307
 C         1.954494        -1.629860        -0.041957
 C         3.270731        -1.122359         0.641143
 O         4.031734        -1.861695         1.545132
 C         3.744910         0.133352        -0.091732
 C         3.190600         0.404982        -1.505000
 O         1.729646         0.365058        -1.455704
 C         2.642084         0.207911         0.852964
 H        -0.057366         0.137018         1.301260
 H        -0.060675         1.248579        -0.080476
 H        -0.759917        -0.354473        -0.418551
 H         1.470753        -2.005596         0.932173
 H         2.045825        -2.247052        -0.948452
 H         4.979036        -1.581124         1.482095
 H         4.667546         0.649557         0.289908
 H         3.636821         1.435436        -1.813832
 H         3.526427        -0.326595        -2.214869
 H         2.734460         0.700854         1.883511
