19
Iteration:  1352charge 0 multiplicity 1
 C         0.010971         0.168184         0.130098
 C         1.449281        -0.081518        -0.030298
 C         1.830843        -1.590880         0.106094
 C         3.266870        -1.143327         0.666081
 O         4.280393        -1.858360         1.229812
 C         3.711407         0.216375        -0.026961
 C         3.287593         0.188466        -1.479548
 O         1.792036         0.361304        -1.397066
 C         2.557749         0.383235         0.890376
 H        -0.694981         0.043741         1.074445
 H        -0.093410         1.324306        -0.046346
 H        -0.604264        -0.303703        -0.737889
 H         1.124066        -1.975457         0.830160
 H         1.714827        -2.225385        -0.751823
 H         3.937510        -2.534858         1.842469
 H         4.723612         0.419471         0.242804
 H         3.767981         0.956297        -2.141465
 H         3.430857        -0.880780        -1.931859
 H         2.312163         1.195987         1.588709
