19
Iteration:  1922
 C        -0.045672         0.227013         0.104039
 C         1.469917        -0.094413         0.001763
 C         1.906223        -1.655346         0.141261
 C         3.196593        -1.067196         0.632536
 O         4.190134        -1.792097         1.230633
 C         3.711286         0.112879        -0.104999
 C         3.251309         0.250024        -1.553511
 O         1.836953         0.338669        -1.342965
 C         2.648785         0.298366         0.949309
 H        -0.425140        -0.074111         1.102927
 H        -0.220592         1.286476        -0.041758
 H        -0.733326        -0.291573        -0.646053
 H         1.386969        -2.056216         0.958852
 H         1.949018        -2.323457        -0.662653
 H         3.719643        -2.424313         1.818359
 H         4.747578         0.280935         0.107444
 H         3.598313         1.228205        -2.002829
 H         3.477960        -0.575507        -2.151875
 H         2.554927         1.101359         1.633177
