19
Iteration:   644charge 0 multiplicity 1
 C         0.098990         0.206363         0.266709
 C         1.414315        -0.243949        -0.120284
 C         1.904244        -1.781151        -0.012478
 C         3.230926        -1.139788         0.646925
 O         4.074250        -1.726633         1.497548
 C         3.791944         0.001271        -0.234885
 C         3.194947         0.650201        -1.483955
 O         1.825037         0.297843        -1.456029
 C         2.620949         0.184337         0.812949
 H        -0.009942         0.191737         1.356007
 H         0.179152         1.253063        -0.064218
 H        -0.745120        -0.292419        -0.153305
 H         1.144987        -2.239730         0.775443
 H         2.011146        -2.463702        -0.952404
 H         3.583734        -1.790418         2.322289
 H         4.629789         0.476363         0.192908
 H         3.427840         1.787207        -1.456158
 H         3.830676         0.285202        -2.448177
 H         2.627102         0.865636         1.621248
