19
Iteration:   803charge 0 multiplicity 1
 C         0.072690         0.216792         0.493387
 C         1.388323        -0.250581        -0.211524
 C         1.976112        -1.677095        -0.073739
 C         3.211756        -1.070148         0.597740
 O         4.051678        -1.745816         1.454719
 C         3.739794         0.104739        -0.121826
 C         3.340138         0.487305        -1.418948
 O         1.816146         0.186583        -1.516350
 C         2.557094         0.321871         0.735480
 H         0.316573         0.270442         1.542633
 H         0.061658         1.285472         0.298905
 H        -0.887682        -0.371464         0.254168
 H         1.342446        -2.294697         0.548737
 H         2.141072        -2.216582        -1.057283
 H         3.417105        -2.311828         1.909299
 H         4.742801         0.376965         0.123664
 H         3.474821         1.576384        -1.631841
 H         3.725052        -0.092348        -2.300276
 H         2.492343         0.875430         1.646445
