19
Iteration:  2540charge 0 multiplicity 1
 C        -0.095043         0.067520         0.275630
 C         1.433693        -0.145499        -0.103709
 C         1.953618        -1.503383         0.021505
 C         3.268028        -1.026188         0.630296
 O         4.145469        -1.877144         1.368002
 C         3.800195         0.119980        -0.068228
 C         3.319034         0.125477        -1.584556
 O         1.767687         0.570338        -1.420283
 C         2.608318         0.304427         0.852318
 H        -0.080463        -0.444850         1.225839
 H        -0.430754         1.106044         0.385025
 H        -0.828655        -0.402929        -0.479313
 H         1.329300        -2.211317         0.734585
 H         1.978929        -2.098329        -0.901034
 H         3.902265        -2.136448         2.278138
 H         4.796013         0.609620         0.189573
 H         3.585860         0.820438        -2.408092
 H         3.169855        -0.959667        -1.890368
 H         2.661190         1.078943         1.781350
