19
Iteration:  1880charge 0 multiplicity 1
 C         0.072149         0.337762         0.251418
 C         1.461864        -0.206295        -0.114628
 C         1.921603        -1.686335         0.142025
 C         3.234253        -1.125244         0.645794
 O         4.089677        -1.936929         1.341911
 C         3.762778         0.113848        -0.172507
 C         3.164777         0.596457        -1.488685
 O         1.861898         0.106663        -1.487782
 C         2.550793         0.345169         0.835753
 H        -0.039630        -0.031190         1.220835
 H         0.147543         1.359484         0.315055
 H        -0.659056        -0.057288        -0.402718
 H         1.402693        -2.104082         0.996528
 H         1.854970        -2.317299        -0.712398
 H         4.120474        -1.737660         2.281778
 H         4.748778         0.378307         0.129305
 H         3.143872         1.718797        -1.576422
 H         3.645415         0.143800        -2.308352
 H         2.534113         1.157713         1.553085
