19
Iteration:  4726
 C         0.127623         0.178137         0.445680
 C         1.524615        -0.155165        -0.108097
 C         1.925590        -1.622899        -0.104917
 C         3.176622        -1.152845         0.569760
 O         3.911928        -1.799649         1.562940
 C         3.818157         0.089885        -0.239315
 C         3.273252         0.429805        -1.636255
 O         1.770712         0.342424        -1.412538
 C         2.734707         0.228152         0.829657
 H         0.055968         0.021752         1.563563
 H        -0.166032         1.229044         0.233551
 H        -0.770109        -0.403653        -0.034456
 H         1.259694        -2.243239         0.545805
 H         1.910867        -2.168987        -1.016418
 H         3.222156        -1.805577         2.253642
 H         4.843087         0.330220        -0.020795
 H         3.394850         1.483172        -1.794232
 H         3.587352        -0.214675        -2.511919
 H         2.916654         0.892677         1.658252
