19
Iteration:  3204
 C         0.055379         0.199369         0.407433
 C         1.477284        -0.194196        -0.110719
 C         1.974661        -1.687987        -0.101687
 C         3.264693        -1.117270         0.549615
 O         3.991094        -1.847552         1.522961
 C         3.783516         0.224412        -0.093799
 C         3.249596         0.512731        -1.537063
 O         1.811731         0.330248        -1.466911
 C         2.579230         0.184709         0.850001
 H        -0.139007        -0.110773         1.451630
 H        -0.024348         1.275106         0.216186
 H        -0.738406        -0.347676        -0.125072
 H         1.464655        -2.231217         0.626512
 H         1.917459        -2.181505        -1.062104
 H         4.139179        -2.762768         1.240661
 H         4.548559         0.803912         0.219972
 H         3.439079         1.501276        -2.053140
 H         3.658432        -0.179916        -2.342373
 H         2.419188         0.798231         1.732573
