19
Iteration:  3514charge 0 multiplicity 1
 C         0.086701         0.281771         0.264680
 C         1.465637        -0.194376        -0.099160
 C         1.847314        -1.690402         0.134645
 C         3.259110        -1.105084         0.568283
 O         4.041742        -1.949494         1.388926
 C         3.758103         0.193268        -0.067676
 C         3.192833         0.646181        -1.479328
 O         1.831471         0.153706        -1.552407
 C         2.585094         0.210751         0.871391
 H         0.113008         0.264746         1.327090
 H        -0.254213         1.263998        -0.107583
 H        -0.685426        -0.293922        -0.227495
 H         1.455059        -1.895263         1.151054
 H         1.743526        -2.434441        -0.788673
 H         4.977543        -1.960398         1.123951
 H         4.701226         0.743871         0.227615
 H         3.510110         1.747918        -1.596353
 H         3.738020         0.180507        -2.280107
 H         2.527534         0.742526         1.830607
