19
Iteration:  1620
 C         0.052850         0.044631         0.150398
 C         1.471652        -0.039419        -0.102770
 C         1.921346        -1.592865         0.021688
 C         3.214207        -1.065374         0.718103
 O         4.162483        -1.771671         1.446681
 C         3.801187         0.049868        -0.227721
 C         3.140049         0.121635        -1.547345
 O         1.769727         0.609849        -1.318594
 C         2.649751         0.265801         0.854071
 H        -0.192844        -0.309099         1.131558
 H        -0.386346         1.002737        -0.077724
 H        -0.567375        -0.449390        -0.602057
 H         1.300195        -2.091764         0.708476
 H         1.950343        -2.229434        -0.854496
 H         3.706776        -2.231239         2.193929
 H         4.855365         0.478267        -0.072717
 H         3.530793         0.808004        -2.268226
 H         3.136124        -0.871212        -2.029784
 H         2.886585         0.836653         1.792547
