19
Iteration:  1820charge 0 multiplicity 1
 C         0.035620         0.166485         0.327318
 C         1.480921        -0.149077        -0.137036
 C         2.034431        -1.715346        -0.019381
 C         3.186337        -1.101718         0.688787
 O         4.123720        -1.767742         1.467966
 C         3.733133         0.001373        -0.136303
 C         3.230361         0.301657        -1.614087
 O         1.760732         0.564179        -1.424628
 C         2.617179         0.237638         0.839818
 H        -0.344279        -0.179770         1.385410
 H        -0.338283         1.303725         0.252104
 H        -0.714102        -0.369532        -0.363608
 H         1.293747        -2.199369         0.645060
 H         2.174733        -2.287162        -0.974460
 H         3.693896        -2.184431         2.235680
 H         4.739321         0.416167         0.075594
 H         3.630227         1.134924        -2.245161
 H         3.375201        -0.617947        -2.297143
 H         2.669559         1.105045         1.567892
