19
Iteration:  3441charge 0 multiplicity 1
 C         0.085819         0.091461         0.276671
 C         1.490448        -0.158561        -0.127281
 C         1.969404        -1.710722        -0.133172
 C         3.181088        -1.081753         0.641321
 O         4.070567        -1.752418         1.509907
 C         3.780378         0.117447        -0.133238
 C         3.119236         0.211992        -1.519508
 O         1.821222         0.639809        -1.323567
 C         2.599822         0.222758         0.867723
 H        -0.237506        -0.700667         1.075631
 H        -0.075614         1.210919         0.513593
 H        -0.624198        -0.002750        -0.608905
 H         1.345026        -2.387241         0.531697
 H         2.152697        -2.104533        -1.064364
 H         4.387425        -2.512153         1.003484
 H         4.749617         0.706069         0.179537
 H         3.510368         0.850810        -2.291916
 H         3.426998        -0.745982        -2.090438
 H         2.522493         0.940065         1.675919
