19
Iteration:   437charge 0 multiplicity 1
 C        -0.058048         0.093226         0.165458
 C         1.398444        -0.124018        -0.103830
 C         1.917574        -1.589797        -0.063885
 C         3.219432        -1.079667         0.694184
 O         4.179638        -1.851670         1.508228
 C         3.765929         0.207093        -0.082467
 C         3.244409         0.231498        -1.530800
 O         1.804795         0.479185        -1.401881
 C         2.647299         0.261789         0.907502
 H        -0.411957         0.000680         1.234075
 H        -0.482706         1.053419        -0.323538
 H        -0.618113        -0.793179        -0.284462
 H         1.366028        -2.107087         0.700983
 H         1.853380        -2.084896        -1.049364
 H         4.656656        -2.377187         0.818396
 H         4.683060         0.576430         0.432724
 H         3.715425         0.968451        -2.224104
 H         3.440916        -0.668111        -2.054571
 H         2.570273         1.146889         1.589619
