19
Iteration:  3572
 C        -0.040644         0.217211         0.093758
 C         1.456910        -0.150203        -0.107717
 C         1.933306        -1.603419         0.038638
 C         3.308893        -1.127234         0.596205
 O         4.139803        -1.875476         1.403354
 C         3.732953         0.128919        -0.094234
 C         3.149262         0.308352        -1.494003
 O         1.803821         0.487503        -1.327466
 C         2.624996         0.215859         0.917419
 H        -0.421296        -0.318876         1.037325
 H        -0.150361         1.263429         0.353385
 H        -0.681269        -0.254268        -0.637911
 H         1.223755        -2.055548         0.829322
 H         1.810516        -2.306913        -0.802105
 H         5.008750        -2.049331         1.014780
 H         4.744602         0.567178         0.064733
 H         3.651455         1.144700        -1.973060
 H         3.313427        -0.656080        -1.987710
 H         2.556077         0.753721         1.854624
