19
Iteration:  3334charge 0 multiplicity 1
 C         0.014730         0.308320         0.193780
 C         1.415501        -0.218862        -0.089168
 C         1.862975        -1.634029         0.024317
 C         3.269068        -1.154723         0.529268
 O         4.185447        -1.829244         1.403216
 C         3.703018         0.190049        -0.041051
 C         3.242675         0.450012        -1.438128
 O         1.824486         0.254200        -1.488774
 C         2.575509         0.188830         0.951221
 H        -0.079688         0.386747         1.304007
 H        -0.227372         1.311823        -0.090105
 H        -0.735328        -0.383001        -0.203423
 H         1.183238        -2.117985         0.807803
 H         1.799385        -2.188744        -1.021008
 H         4.821301        -2.330566         0.865435
 H         4.689905         0.615606         0.353738
 H         3.406298         1.548259        -1.580315
 H         3.678477        -0.288432        -2.051998
 H         2.446378         0.834182         1.785000
