19
Iteration:  1153charge 0 multiplicity 1
 C        -0.036521         0.153911         0.182967
 C         1.419635        -0.114282        -0.078549
 C         2.021600        -1.584924         0.085714
 C         3.289580        -1.131200         0.588276
 O         4.154103        -1.860012         1.283518
 C         3.708929         0.130183        -0.039726
 C         3.224379         0.294026        -1.476293
 O         1.817939         0.421108        -1.371035
 C         2.563247         0.286829         0.830359
 H        -0.347864         0.401534         1.229846
 H        -0.395182         1.045969        -0.312395
 H        -0.750851        -0.718120        -0.022632
 H         1.450682        -2.230657         0.718124
 H         2.089331        -2.027920        -0.928316
 H         3.725314        -2.164042         2.107692
 H         4.776031         0.383934         0.255184
 H         3.669736         1.150790        -1.955367
 H         3.569023        -0.671969        -1.947802
 H         2.518387         1.190051         1.502628
