19
Iteration:  3683
 C         0.080767         0.216115         0.228995
 C         1.458877        -0.196233        -0.072078
 C         1.884366        -1.656829        -0.048989
 C         3.205569        -1.146528         0.624586
 O         4.075214        -1.872568         1.431695
 C         3.690090         0.098071        -0.098567
 C         3.191533         0.472383        -1.454781
 O         1.812057         0.394477        -1.443714
 C         2.669373         0.244502         0.897980
 H        -0.053212         0.176290         1.330466
 H        -0.202347         1.224361         0.034405
 H        -0.522167        -0.533524        -0.271450
 H         1.299853        -2.296450         0.741483
 H         1.928630        -2.117779        -1.054506
 H         4.845578        -2.074169         0.858574
 H         4.726438         0.373159         0.124571
 H         3.480018         1.484884        -1.637341
 H         3.474766        -0.184846        -2.218012
 H         2.795058         0.966168         1.726268
