19
Iteration:  4266
 C         0.014638         0.274271         0.314103
 C         1.399873        -0.165536        -0.164375
 C         1.917806        -1.642502         0.048245
 C         3.244170        -1.119702         0.615997
 O         3.991918        -1.946348         1.473672
 C         3.831140         0.157233        -0.151014
 C         3.287294         0.501637        -1.550898
 O         1.795776         0.269618        -1.459342
 C         2.650837         0.197275         0.866804
 H        -0.251164         0.264704         1.387754
 H        -0.236088         1.433838         0.096983
 H        -0.772372        -0.401955        -0.268743
 H         1.359631        -1.902392         0.952104
 H         1.889223        -2.313575        -0.744556
 H         4.924856        -1.767596         1.309514
 H         4.807143         0.489653         0.003401
 H         3.291342         1.529032        -1.734375
 H         3.677277        -0.061497        -2.415032
 H         2.695087         0.860957         1.800326
