19
Iteration:  4054
 C         0.001885         0.210896         0.191766
 C         1.465015        -0.160854        -0.040201
 C         1.857319        -1.651272         0.122751
 C         3.180818        -1.078223         0.642361
 O         4.134851        -1.878765         1.372372
 C         3.782526         0.004732        -0.147783
 C         3.213220         0.496837        -1.511064
 O         1.836898         0.271892        -1.398607
 C         2.644384         0.364700         0.823723
 H        -0.515602        -0.372255         1.119866
 H        -0.073659         1.340999         0.447614
 H        -0.492541         0.080573        -0.815151
 H         1.243357        -2.008744         0.949822
 H         1.857096        -2.121580        -0.777678
 H         4.448753        -2.579902         0.777390
 H         4.746818         0.318880         0.203229
 H         3.517417         1.510903        -1.439143
 H         3.587528        -0.061322        -2.340402
 H         2.534443         1.103757         1.682060
