19
Iteration:  4996
 C         0.114509         0.442849         0.310216
 C         1.489579        -0.187917        -0.100363
 C         1.850098        -1.671966         0.105654
 C         3.259660        -1.164224         0.582416
 O         4.089081        -1.855512         1.463172
 C         3.737285         0.060860        -0.200308
 C         3.197743         0.510991        -1.484094
 O         1.833664         0.069035        -1.492169
 C         2.571264         0.360929         0.753222
 H        -0.028439         0.141238         1.367623
 H         0.261086         1.565889         0.276336
 H        -0.704903        -0.023929        -0.406189
 H         1.490083        -2.095065         1.007721
 H         1.752531        -2.277221        -0.775665
 H         3.603628        -2.496397         2.008204
 H         4.674333         0.514926         0.198032
 H         3.277347         1.648897        -1.640756
 H         3.744613         0.012056        -2.353287
 H         2.667826         1.109180         1.537521
