19
Iteration:  4205charge 0 multiplicity 1
 C         0.002650         0.282145         0.259228
 C         1.467438        -0.121771        -0.084597
 C         1.974695        -1.620003        -0.034823
 C         3.287503        -1.118271         0.646318
 O         4.122358        -1.890356         1.576998
 C         3.713374         0.053263        -0.170935
 C         3.183011         0.367193        -1.554479
 O         1.730024         0.390003        -1.416430
 C         2.619090         0.274795         0.846755
 H        -0.407451        -0.379504         1.058468
 H        -0.065051         1.308555         0.485955
 H        -0.469648         0.062760        -0.661087
 H         1.369269        -2.382115         0.511551
 H         2.076447        -2.114758        -1.110858
 H         4.204404        -2.809015         1.295617
 H         4.752965         0.465764         0.001202
 H         3.637158         1.402784        -1.898031
 H         3.646131        -0.249816        -2.377028
 H         2.781611         1.043559         1.611047
