19
Iteration:  2232
 C        -0.125470         0.094116         0.126463
 C         1.395923        -0.100246        -0.087215
 C         1.908175        -1.495398         0.099626
 C         3.337348        -1.063861         0.636212
 O         4.127800        -1.920918         1.360645
 C         3.804991         0.153010        -0.146551
 C         3.223250         0.287990        -1.454385
 O         1.805436         0.396970        -1.349722
 C         2.679420         0.319208         0.926280
 H        -0.535650        -0.250747         1.118871
 H        -0.452063         1.188420         0.013743
 H        -0.623624        -0.410117        -0.668346
 H         1.344098        -1.992020         0.929420
 H         1.712692        -2.102053        -0.750266
 H         4.366445        -2.680834         0.808795
 H         4.921080         0.511839         0.021732
 H         3.614131         1.081418        -2.159000
 H         3.368141        -0.570773        -2.101195
 H         2.814649         1.024487         1.779094
