19
Iteration:  3758
 C        -0.065010         0.195125         0.234929
 C         1.428101        -0.090982        -0.045537
 C         1.980936        -1.599871        -0.017553
 C         3.255987        -1.113991         0.619381
 O         4.090337        -1.956009         1.372126
 C         3.734919         0.089956        -0.098804
 C         3.271225         0.315169        -1.471731
 O         1.773900         0.433509        -1.411168
 C         2.619082         0.305163         0.900266
 H        -0.461676        -0.398121         1.081983
 H        -0.175439         1.180889         0.583084
 H        -0.618416        -0.069201        -0.622721
 H         1.399795        -2.346484         0.652616
 H         2.027371        -2.162349        -0.993093
 H         5.023122        -1.822935         1.147706
 H         4.666401         0.615979         0.117041
 H         3.616593         1.328233        -1.845825
 H         3.421696        -0.510673        -2.259397
 H         2.706596         1.084422         1.680037
