19
Iteration:  2156charge 0 multiplicity 1
 C        -0.030266         0.217958         0.462122
 C         1.416093        -0.194369        -0.083373
 C         2.021632        -1.720290        -0.165289
 C         3.325556        -1.193834         0.555014
 O         3.872376        -1.688293         1.667059
 C         3.800534         0.054185        -0.262389
 C         3.222882         0.413840        -1.554036
 O         1.807295         0.448068        -1.465385
 C         2.679296         0.142830         0.753856
 H        -0.014954        -0.097121         1.585114
 H         0.147304         1.347258         0.563882
 H        -0.934795        -0.124485         0.074482
 H         1.497357        -2.506732         0.431541
 H         2.167277        -1.935346        -1.137371
 H         4.633484        -2.261633         1.440556
 H         4.746986         0.377092         0.182826
 H         3.513450         1.552854        -1.671976
 H         3.499741        -0.130634        -2.396187
 H         2.771674         0.728916         1.593312
