19
Iteration:   510charge 0 multiplicity 1
 C         0.050760         0.254908         0.236926
 C         1.459976        -0.171421        -0.119816
 C         2.023094        -1.705052         0.008748
 C         3.277426        -1.112399         0.595371
 O         4.031747        -1.778140         1.540493
 C         3.806953        -0.020583        -0.238806
 C         3.170927         0.583221        -1.506534
 O         1.778603         0.236290        -1.436564
 C         2.607347         0.217984         0.823437
 H        -0.354594        -0.436804         0.919127
 H         0.004503         1.232973         0.602362
 H        -0.718089         0.239449        -0.572495
 H         1.463750        -2.107469         0.995766
 H         2.033547        -2.406553        -0.884569
 H         3.623151        -1.990839         2.386073
 H         4.742246         0.493089        -0.014275
 H         3.296647         1.695971        -1.395586
 H         3.560383         0.188386        -2.567512
 H         2.769305         0.941097         1.635618
