19
Iteration:  2747
 C         0.095313         0.175649         0.361524
 C         1.436644        -0.186807        -0.061861
 C         1.989558        -1.588314        -0.037051
 C         3.260768        -1.098985         0.581651
 O         4.068050        -1.816946         1.449172
 C         3.717801         0.162884        -0.111698
 C         3.251136         0.368238        -1.559587
 O         1.766591         0.291021        -1.465741
 C         2.593422         0.303077         0.806161
 H         0.186833        -0.134879         1.388193
 H        -0.075732         1.217763         0.281148
 H        -0.735588        -0.204194        -0.311627
 H         1.437626        -2.146757         0.671946
 H         1.979129        -2.243935        -0.856524
 H         3.421919        -2.192968         2.076722
 H         4.661675         0.440379         0.239290
 H         3.464154         1.377997        -1.961748
 H         3.625036        -0.391947        -2.304644
 H         2.687952         0.813517         1.651792
