19
Iteration:  2374charge 0 multiplicity 1
 C         0.028526         0.077130         0.260137
 C         1.493337        -0.090197        -0.057210
 C         1.943813        -1.628474        -0.067547
 C         3.202105        -1.098989         0.629079
 O         4.093364        -1.726837         1.518648
 C         3.774283         0.041039        -0.186895
 C         3.160874         0.249396        -1.543693
 O         1.762389         0.528147        -1.305670
 C         2.714076         0.282977         0.782858
 H        -0.307382        -0.408016         1.173303
 H        -0.249126         1.142351         0.215125
 H        -0.404736        -0.220934        -0.625115
 H         1.483614        -2.407011         0.628227
 H         1.885419        -2.114729        -1.055635
 H         3.810202        -2.645342         1.577658
 H         4.873842         0.269414        -0.117618
 H         3.662938         1.043993        -2.066515
 H         3.269541        -0.637509        -2.204000
 H         2.622799         0.927355         1.640714
