19
Iteration:  3687
 C         0.046566         0.206208         0.186313
 C         1.456696        -0.166070        -0.066685
 C         1.878117        -1.633542        -0.028748
 C         3.210284        -1.122944         0.631587
 O         4.119116        -1.900555         1.421433
 C         3.674334         0.071299        -0.106943
 C         3.215833         0.457305        -1.476716
 O         1.806667         0.385764        -1.407068
 C         2.665103         0.259323         0.920874
 H        -0.165523         0.152363         1.273163
 H        -0.184867         1.327046         0.041557
 H        -0.632932        -0.600559        -0.273633
 H         1.275683        -2.194159         0.593640
 H         1.863397        -2.136142        -0.975893
 H         4.859064        -2.038112         0.810599
 H         4.753842         0.403722         0.094575
 H         3.463369         1.525473        -1.644435
 H         3.601149        -0.223372        -2.274522
 H         2.729026         0.906562         1.778711
