19
Iteration:  2146
 C         0.007858         0.197543         0.443429
 C         1.459013        -0.197835        -0.100932
 C         2.013031        -1.670633        -0.138060
 C         3.254212        -1.137345         0.534314
 O         3.919887        -1.756426         1.650326
 C         3.828838         0.031194        -0.160449
 C         3.219577         0.419734        -1.623288
 O         1.767158         0.413118        -1.416659
 C         2.667471         0.249166         0.775143
 H        -0.041548        -0.188643         1.525286
 H        -0.141817         1.323876         0.347936
 H        -0.764508        -0.217743        -0.170097
 H         1.314927        -2.343374         0.420114
 H         2.093289        -2.067798        -1.121276
 H         4.595506        -2.394997         1.370507
 H         4.811357         0.468391         0.084000
 H         3.599236         1.503708        -1.838091
 H         3.486544        -0.180385        -2.475474
 H         2.787400         0.639758         1.726418
