19
Iteration:  2559charge 0 multiplicity 1
 C        -0.029241         0.082234         0.238321
 C         1.464273        -0.044771        -0.069532
 C         1.995225        -1.654217         0.035737
 C         3.228199        -1.051873         0.679322
 O         4.138074        -1.891806         1.338082
 C         3.717172         0.097038        -0.115184
 C         3.170436         0.234543        -1.543582
 O         1.859846         0.469757        -1.353044
 C         2.621224         0.376837         0.808238
 H        -0.252225        -0.173580         1.320341
 H        -0.528776         1.098940         0.002864
 H        -0.580832        -0.506016        -0.496057
 H         1.359432        -2.101770         0.767172
 H         1.997873        -2.327409        -0.836517
 H         3.717107        -2.015798         2.208412
 H         4.726058         0.433316        -0.094649
 H         3.644732         1.051957        -2.112650
 H         3.446534        -0.603399        -2.183746
 H         2.644699         1.173247         1.628247
