19
Iteration:  2574charge 0 multiplicity 1
 C         0.097049         0.138722         0.165208
 C         1.491321        -0.151461        -0.082332
 C         1.929047        -1.577347         0.073933
 C         3.216478        -1.119033         0.681547
 O         4.135706        -1.824804         1.386508
 C         3.779675         0.056930        -0.189744
 C         3.192122         0.352833        -1.550187
 O         1.683374         0.396684        -1.385041
 C         2.653455         0.328072         0.884269
 H        -0.211607        -0.020447         1.183573
 H        -0.073188         1.157829        -0.092461
 H        -0.509669        -0.659860        -0.394994
 H         1.296761        -2.185254         0.856398
 H         2.080466        -2.095187        -0.876325
 H         3.713532        -2.314433         2.131824
 H         4.743435         0.356721         0.329513
 H         3.592673         1.342478        -1.925292
 H         3.438460        -0.433956        -2.362651
 H         2.656300         1.109919         1.696297
