19
Iteration:  3290charge 0 multiplicity 1
 C         0.004702         0.068346         0.159949
 C         1.455961        -0.115241        -0.095463
 C         1.970971        -1.576528         0.001558
 C         3.292147        -1.108389         0.663421
 O         4.086953        -1.937044         1.472725
 C         3.744702         0.170783        -0.135375
 C         3.199437         0.291830        -1.523158
 O         1.758385         0.532244        -1.339803
 C         2.611678         0.286318         0.862543
 H        -0.430117        -0.381590         1.071089
 H        -0.124655         1.153767         0.278133
 H        -0.521895        -0.297509        -0.719131
 H         1.440633        -2.247907         0.791190
 H         1.904851        -2.161745        -1.012228
 H         4.722697        -2.374217         0.883442
 H         4.632668         0.702946         0.098418
 H         3.596781         1.244674        -1.946091
 H         3.333900        -0.632249        -2.031584
 H         2.703409         1.019669         1.632526
