19
Iteration:  4184
 C         0.026709         0.104502         0.177340
 C         1.482873        -0.119930        -0.068155
 C         2.005528        -1.549337         0.050996
 C         3.288323        -1.073635         0.621185
 O         3.983756        -1.891873         1.476858
 C         3.839481         0.117125        -0.173216
 C         3.143864         0.279508        -1.573936
 O         1.768950         0.519431        -1.324326
 C         2.677127         0.308381         0.865455
 H        -0.339103        -0.642429         0.933037
 H        -0.220558         1.105290         0.410897
 H        -0.576365        -0.107430        -0.696092
 H         1.366825        -2.070116         0.812276
 H         1.892156        -2.308046        -0.829472
 H         3.973019        -2.826602         1.174211
 H         4.837639         0.622531         0.039954
 H         3.564521         0.986491        -2.373562
 H         3.300454        -0.736469        -2.108504
 H         2.733860         0.899221         1.774561
