19
Iteration:  2915
 C         0.057442         0.213732         0.313045
 C         1.505055        -0.186870        -0.077441
 C         1.932544        -1.722296        -0.041999
 C         3.280120        -1.230183         0.575757
 O         4.066921        -1.795748         1.560615
 C         3.768286         0.091227        -0.228837
 C         3.177646         0.549352        -1.563781
 O         1.768098         0.407618        -1.398040
 C         2.648069         0.183832         0.748111
 H        -0.170410        -0.276524         1.328201
 H        -0.184722         1.344190         0.414899
 H        -0.609773        -0.202657        -0.522832
 H         1.376998        -2.309009         0.721164
 H         1.936068        -2.333304        -0.878699
 H         3.621512        -1.824127         2.428353
 H         4.727696         0.405889        -0.047829
 H         3.393284         1.571980        -1.654328
 H         3.534012        -0.128210        -2.347030
 H         2.730158         0.922961         1.619104
