19
Iteration:  4548
 C         0.174629         0.288828         0.427090
 C         1.554146        -0.255828        -0.144214
 C         1.896719        -1.774597        -0.118073
 C         3.266786        -1.157163         0.536339
 O         3.873661        -1.750478         1.663098
 C         3.786248         0.076611        -0.203294
 C         3.223263         0.604183        -1.539294
 O         1.742316         0.331110        -1.417311
 C         2.654650         0.180664         0.724595
 H         0.035099        -0.033523         1.466056
 H         0.318062         1.376805         0.385058
 H        -0.548290        -0.212568        -0.341066
 H         1.406317        -2.261394         0.790643
 H         2.019152        -2.279706        -1.079498
 H         4.023566        -2.690671         1.546176
 H         4.817991         0.490528         0.052454
 H         3.235158         1.596405        -1.820320
 H         3.631256         0.087343        -2.343678
 H         2.661808         0.832352         1.581293
