19
Iteration:  4361
 C         0.140588         0.242328         0.270244
 C         1.505755        -0.164987        -0.120335
 C         1.964895        -1.651612        -0.050184
 C         3.175308        -1.126986         0.664197
 O         4.023384        -1.915633         1.541937
 C         3.741788         0.040659        -0.164971
 C         3.135013         0.358718        -1.577854
 O         1.733050         0.417835        -1.403836
 C         2.668044         0.288988         0.834335
 H        -0.270355        -0.233137         1.160737
 H         0.047222         1.218796         0.606899
 H        -0.554004         0.021980        -0.501290
 H         1.177267        -2.327241         0.453425
 H         2.445463        -1.950357        -1.017066
 H         4.764980        -1.285694         1.661654
 H         4.700658         0.265522         0.171844
 H         3.684857         1.366811        -1.861323
 H         3.437395        -0.305139        -2.435298
 H         2.618850         1.088111         1.653915
