19
Iteration:  4288charge 0 multiplicity 1
 C         0.079264         0.149488         0.180818
 C         1.480264        -0.071642        -0.002261
 C         1.974414        -1.583378         0.092568
 C         3.247742        -1.114177         0.676468
 O         3.980883        -2.020275         1.347578
 C         3.745951         0.036451        -0.099607
 C         3.176690         0.378328        -1.548264
 O         1.793014         0.356821        -1.381044
 C         2.649962         0.428031         0.818314
 H        -0.415861         0.182701         1.192026
 H        -0.237432         1.286930        -0.126193
 H        -0.643823        -0.532244        -0.479170
 H         1.449812        -2.290140         0.779149
 H         2.088815        -1.890116        -0.902723
 H         4.915225        -1.727033         1.437305
 H         4.732359         0.356355         0.090422
 H         3.423653         1.371867        -1.761767
 H         3.517626        -0.365422        -2.311696
 H         2.671922         1.284171         1.570307
