19
Iteration:  3213
 C         0.083162         0.192640         0.411901
 C         1.434493        -0.234154        -0.124428
 C         1.981852        -1.699621        -0.152497
 C         3.292148        -1.116233         0.592533
 O         4.012675        -1.856785         1.607774
 C         3.696067         0.202588        -0.130522
 C         3.222478         0.498752        -1.536478
 O         1.763792         0.406845        -1.535488
 C         2.630686         0.213667         0.844953
 H         0.089501        -0.158836         1.437803
 H        -0.139894         1.304426         0.446270
 H        -0.689556        -0.151962        -0.197883
 H         1.350050        -2.337278         0.567341
 H         2.237087        -2.184665        -1.137974
 H         4.144890        -2.775695         1.322518
 H         4.619332         0.568066         0.138772
 H         3.530882         1.598246        -1.928077
 H         3.783155        -0.278110        -2.186788
 H         2.695733         0.675344         1.880078
