19
Iteration:   419
 C         0.013309         0.047681        -0.001096
 C         1.479642        -0.068499        -0.047711
 C         2.001903        -1.590886         0.039299
 C         3.226688        -1.075048         0.689169
 O         4.161501        -1.788131         1.459966
 C         3.691722         0.069815        -0.100657
 C         3.145696         0.232883        -1.544363
 O         1.779411         0.543690        -1.320734
 C         2.629480         0.300281         0.937709
 H        -0.231988        -0.149787         1.078580
 H        -0.303657         1.044372        -0.367458
 H        -0.411651        -0.702327        -0.573473
 H         1.136213        -2.133756         0.514965
 H         2.150897        -2.106920        -0.924656
 H         4.376101        -2.669338         1.063851
 H         4.759570         0.421968        -0.154500
 H         3.551282         1.031456        -2.129607
 H         3.204415        -0.868973        -1.974692
 H         2.596266         0.815954         1.949349
