19
Iteration:  4821charge 0 multiplicity 1
 C         0.039968         0.412575         0.210695
 C         1.434930        -0.125888        -0.088493
 C         1.925838        -1.626175         0.191926
 C         3.224357        -1.118327         0.717311
 O         4.200418        -1.925786         1.317695
 C         3.684670         0.079813        -0.182652
 C         3.247664         0.365474        -1.579879
 O         1.792511         0.260211        -1.417556
 C         2.562131         0.276856         0.850630
 H        -0.385952         0.026671         1.076625
 H         0.185999         1.477192         0.093888
 H        -0.568796         0.133618        -0.735835
 H         1.276106        -2.202366         0.869200
 H         1.883337        -2.389422        -0.786387
 H         3.942357        -2.160188         2.219558
 H         4.676537         0.333075         0.159071
 H         3.619089         1.406106        -1.764607
 H         3.622511        -0.275889        -2.373779
 H         2.571382         0.870676         1.765924
