19
Iteration:  2089charge 0 multiplicity 1
 C        -0.181741         0.212767         0.059829
 C         1.391794        -0.075378        -0.035831
 C         1.909518        -1.551202         0.145970
 C         3.329906        -1.126045         0.620065
 O         4.210831        -1.877829         1.334566
 C         3.835516         0.126947        -0.099737
 C         3.190213         0.196665        -1.469439
 O         1.822124         0.423228        -1.321321
 C         2.621126         0.289559         0.874921
 H        -0.670086        -0.120686         0.992765
 H        -0.597417         1.240623         0.005869
 H        -0.703184        -0.390650        -0.640966
 H         1.353406        -2.028780         0.923754
 H         1.871705        -2.048317        -0.744644
 H         4.475662        -2.563781         0.677385
 H         4.809045         0.516995         0.103062
 H         3.697639         1.129270        -1.950448
 H         3.409820        -0.676394        -2.014042
 H         2.817389         1.088465         1.658675
