19
Iteration:  2728charge 0 multiplicity 1
 C        -0.079948         0.134529         0.342532
 C         1.482910        -0.117131        -0.121393
 C         1.983237        -1.704279        -0.044216
 C         3.215514        -1.009467         0.661773
 O         4.126245        -1.805898         1.477040
 C         3.813905         0.048460        -0.195983
 C         3.207595         0.286377        -1.587169
 O         1.795296         0.485771        -1.389738
 C         2.665099         0.292428         0.830549
 H        -0.216045        -0.097445         1.430397
 H        -0.511532         1.143045         0.196917
 H        -0.758778        -0.416682        -0.438553
 H         1.477215        -2.472940         0.630766
 H         2.141311        -2.201975        -0.989796
 H         3.627048        -2.323086         2.123080
 H         4.854261         0.416267        -0.020459
 H         3.606564         1.212047        -1.905297
 H         3.205365        -0.623040        -2.193090
 H         2.519442         1.072789         1.500532
