19
Iteration:   197
 C         0.152785         0.244968         0.309271
 C         1.490617        -0.251128        -0.121509
 C         1.887750        -1.738870        -0.094504
 C         3.273516        -1.134527         0.667338
 O         4.008432        -1.797320         1.650587
 C         3.679758         0.075397        -0.186333
 C         3.197360         0.557252        -1.563004
 O         1.786412         0.322735        -1.535537
 C         2.619893         0.125716         0.858276
 H        -0.044013        -0.189750         1.248246
 H         0.253852         1.276373         0.448960
 H        -0.610205         0.130162        -0.429907
 H         1.152906        -2.290163         0.479021
 H         2.245501        -1.909035        -1.149670
 H         4.925756        -1.493917         1.828869
 H         4.608608         0.685997         0.097159
 H         3.338159         1.590920        -1.628608
 H         3.492367         0.014939        -2.481283
 H         2.433738         0.966174         1.678586
