19
Iteration:  3802charge 0 multiplicity 1
 C         0.237471         0.106649         0.415499
 C         1.547441        -0.177173        -0.208402
 C         2.032392        -1.744815        -0.088347
 C         3.210869        -1.179859         0.498319
 O         3.803356        -1.838777         1.591358
 C         3.711653         0.098098        -0.174431
 C         3.171656         0.509739        -1.572202
 O         1.723007         0.514089        -1.399111
 C         2.672749         0.225209         0.813524
 H         0.238249        -0.025607         1.510045
 H         0.169855         1.153029         0.486439
 H        -0.575283        -0.353316        -0.077403
 H         1.273464        -2.400228         0.535908
 H         2.157712        -2.310817        -1.060758
 H         4.755356        -1.669132         1.671760
 H         4.767417         0.368246         0.185436
 H         3.522736         1.607848        -1.655775
 H         3.582950        -0.267425        -2.253923
 H         2.799002         0.787806         1.735585
