19
Iteration:  4673
 C         0.049794         0.287245         0.281235
 C         1.488785        -0.169033        -0.124766
 C         1.977457        -1.678715         0.062928
 C         3.209390        -1.126210         0.683648
 O         4.064255        -1.948620         1.461320
 C         3.740861         0.049276        -0.171820
 C         3.200614         0.416514        -1.588372
 O         1.768082         0.418565        -1.449339
 C         2.635422         0.283004         0.813733
 H        -0.270653        -0.166355         1.234764
 H         0.017255         1.346091         0.516934
 H        -0.502575         0.012287        -0.590348
 H         1.294072        -2.380101         0.665976
 H         2.110152        -2.252035        -0.960205
 H         4.312298        -1.483053         2.271898
 H         4.693155         0.436027         0.098910
 H         3.611676         1.368540        -1.906604
 H         3.386702        -0.352502        -2.294553
 H         2.541775         0.949399         1.653342
