19
Iteration:  1812
 C         0.015222         0.123962         0.306123
 C         1.468709        -0.095268        -0.152907
 C         2.009000        -1.702457        -0.032564
 C         3.177254        -1.094751         0.732084
 O         4.113296        -1.777010         1.414051
 C         3.761129         0.050507        -0.144045
 C         3.151595         0.230716        -1.592862
 O         1.812578         0.558078        -1.409969
 C         2.626256         0.330385         0.846425
 H        -0.064003        -0.282631         1.355936
 H        -0.249799         1.175713         0.360996
 H        -0.538222        -0.456095        -0.391465
 H         1.392041        -2.305858         0.580249
 H         2.312883        -2.256860        -0.886246
 H         3.654609        -2.357643         2.057159
 H         4.804762         0.205435         0.266641
 H         3.742836         1.001809        -2.180971
 H         3.194484        -0.721707        -2.021086
 H         2.569612         1.146999         1.606727
