19
Iteration:  2770
 C         0.104951         0.286676         0.339291
 C         1.456442        -0.217785        -0.098011
 C         1.917780        -1.713462         0.057688
 C         3.228886        -1.153372         0.638656
 O         4.103083        -1.820226         1.380854
 C         3.759020         0.194188        -0.126069
 C         3.200057         0.510401        -1.510464
 O         1.821729         0.182226        -1.508086
 C         2.596349         0.281117         0.841662
 H         0.030383        -0.080368         1.364950
 H         0.028488         1.346654         0.270821
 H        -0.710848         0.124818        -0.464919
 H         1.223075        -2.232089         0.688164
 H         1.939103        -2.363920        -0.765230
 H         3.581138        -2.133918         2.139449
 H         4.781480         0.629928        -0.005865
 H         3.240277         1.572933        -1.832904
 H         3.733786        -0.047632        -2.340359
 H         2.341887         0.877710         1.627401
