19
Iteration:  3302charge 0 multiplicity 1
 C        -0.002703         0.186677         0.141555
 C         1.469932        -0.208147        -0.027460
 C         1.983809        -1.671907         0.015349
 C         3.252945        -1.059320         0.670155
 O         4.099222        -1.911982         1.372021
 C         3.695527         0.138231        -0.078243
 C         3.185222         0.331342        -1.508940
 O         1.813807         0.445742        -1.323720
 C         2.597609         0.370002         0.904147
 H        -0.278142        -0.226438         1.172334
 H        -0.249793         1.226501         0.032094
 H        -0.628494        -0.312129        -0.643898
 H         1.262287        -2.319878         0.601484
 H         2.323203        -2.114996        -1.030455
 H         4.642058        -2.425686         0.749052
 H         4.780910         0.385463         0.164903
 H         3.583154         1.207880        -2.168908
 H         3.536000        -0.430114        -2.212281
 H         2.371551         1.179252         1.542980
