19
Iteration:  1804charge 0 multiplicity 1
 C         0.050537         0.049611         0.264440
 C         1.475622        -0.037202        -0.120508
 C         1.972180        -1.613498        -0.030974
 C         3.155756        -1.044445         0.687487
 O         4.126656        -1.823263         1.396778
 C         3.751671         0.110271        -0.125430
 C         3.151838         0.113581        -1.520057
 O         1.827282         0.537081        -1.362602
 C         2.618740         0.419700         0.816456
 H         0.151217        -0.433734         1.161266
 H        -0.167066         1.049288         0.307932
 H        -0.668173        -0.451198        -0.357047
 H         1.332590        -2.350001         0.515128
 H         2.312338        -2.164583        -0.925961
 H         3.669654        -2.541043         1.890680
 H         4.809111         0.223679         0.085341
 H         3.661119         0.863002        -2.123122
 H         3.165532        -0.872587        -2.029331
 H         2.498494         1.047773         1.636231
