19
Iteration:  1097charge 0 multiplicity 1
 C         0.080037         0.174197         0.371155
 C         1.472252        -0.186951        -0.144109
 C         1.952582        -1.810425        -0.035663
 C         3.215871        -1.073385         0.595998
 O         4.028111        -1.711659         1.579671
 C         3.860996        -0.030893        -0.214939
 C         3.179198         0.592782        -1.516190
 O         1.777326         0.307418        -1.474408
 C         2.608472         0.268571         0.749492
 H         0.070686        -0.032358         1.438384
 H         0.126853         1.266988         0.184462
 H        -0.761821        -0.276186        -0.267269
 H         1.390620        -2.149056         0.799138
 H         1.921826        -2.442733        -0.914427
 H         3.581714        -2.562766         1.791112
 H         4.732980         0.481221         0.100413
 H         3.485075         1.622388        -1.316495
 H         3.608998         0.315026        -2.494322
 H         2.664545         0.786129         1.685854
