19
Iteration:  3506charge 0 multiplicity 1
 C         0.111668         0.255688         0.261058
 C         1.488337        -0.195359        -0.081751
 C         1.875034        -1.683744         0.151414
 C         3.266522        -1.136531         0.566968
 O         3.985579        -1.931674         1.408264
 C         3.724435         0.198714        -0.169517
 C         3.193518         0.638297        -1.466914
 O         1.879857         0.206425        -1.516255
 C         2.606793         0.254190         0.846887
 H        -0.157467         0.054665         1.363086
 H        -0.061260         1.336409        -0.111824
 H        -0.590988        -0.533062        -0.085685
 H         1.297011        -2.184796         1.020761
 H         1.651502        -2.434176        -0.576982
 H         4.919945        -1.931388         1.118941
 H         4.779485         0.564116         0.230807
 H         3.212523         1.757002        -1.659998
 H         3.699354         0.169733        -2.369529
 H         2.347531         0.570672         1.858900
