19
Iteration:  3930
 C         0.101284         0.261900         0.321350
 C         1.486214        -0.204639        -0.033984
 C         1.924602        -1.683501         0.017370
 C         3.237884        -1.105299         0.544065
 O         3.930293        -1.856705         1.461013
 C         3.755871         0.087128        -0.147089
 C         3.203952         0.575538        -1.536249
 O         1.807413         0.248210        -1.423141
 C         2.654905         0.250616         0.841159
 H        -0.219584        -0.417899         1.264175
 H         0.180382         1.381562         0.269307
 H        -0.742545         0.049964        -0.416713
 H         1.427666        -2.237426         0.769681
 H         2.047707        -2.230320        -0.929027
 H         4.721426        -2.377486         1.246068
 H         4.887293         0.376386        -0.125188
 H         3.355181         1.661365        -1.588429
 H         3.683602         0.228060        -2.542837
 H         2.611412         0.863306         1.735865
