19
Iteration:  3753charge 0 multiplicity 1
 C        -0.032494         0.196100         0.204242
 C         1.439499        -0.101960        -0.027305
 C         1.971483        -1.607834        -0.000200
 C         3.247705        -1.097278         0.670653
 O         4.091580        -1.958310         1.327533
 C         3.771544         0.092929        -0.097140
 C         3.219894         0.311002        -1.519973
 O         1.775603         0.442560        -1.396716
 C         2.602663         0.293135         0.914685
 H        -0.451676        -0.364551         1.052587
 H        -0.354651         1.246487         0.598980
 H        -0.461117        -0.088959        -0.831334
 H         1.515852        -2.162207         0.763704
 H         1.985160        -2.112980        -0.950011
 H         5.023957        -1.850504         1.061136
 H         4.703272         0.561741         0.265749
 H         3.544997         1.262573        -1.890390
 H         3.564153        -0.554645        -2.046422
 H         2.548279         1.028131         1.709742
