19
Iteration:  1031charge 0 multiplicity 1
 C        -0.102081         0.162099         0.099050
 C         1.416633        -0.101170        -0.041560
 C         2.068953        -1.708267         0.020940
 C         3.278567        -1.009123         0.647513
 O         4.232797        -1.867471         1.276521
 C         3.688776         0.170625        -0.052632
 C         3.169543         0.103395        -1.470692
 O         1.833699         0.491444        -1.342907
 C         2.566008         0.393984         0.931977
 H        -0.652473        -0.431667         0.804571
 H        -0.305225         1.219722         0.464176
 H        -0.713232         0.071645        -0.831042
 H         1.497602        -2.229062         0.778135
 H         2.186495        -2.335637        -0.910413
 H         3.769336        -2.470729         1.891155
 H         4.629310         0.660011         0.220363
 H         3.597921         0.813761        -2.218574
 H         3.283526        -0.933016        -1.935592
 H         2.756668         1.270537         1.550077
