19
Iteration:  2173charge 0 multiplicity 1
 C         0.173186         0.258361         0.507740
 C         1.480800        -0.217603        -0.177397
 C         2.005547        -1.764156        -0.212923
 C         3.230284        -1.188932         0.516862
 O         3.917306        -1.670644         1.735788
 C         3.789908         0.014996        -0.169687
 C         3.198644         0.505595        -1.590690
 O         1.733169         0.442930        -1.422568
 C         2.589074         0.127220         0.744368
 H         0.099499        -0.266706         1.423432
 H         0.141698         1.329810         0.555297
 H        -0.639140        -0.057627        -0.226709
 H         1.413952        -2.424046         0.443890
 H         2.109217        -2.276082        -1.272698
 H         4.668762        -2.258280         1.551180
 H         4.712783         0.475364         0.040850
 H         3.533213         1.488537        -1.802385
 H         3.469689        -0.227767        -2.442919
 H         2.603358         0.787710         1.669863
