19
Iteration:  2727
 C        -0.081664         0.134371         0.333619
 C         1.477644        -0.115792        -0.116095
 C         1.981019        -1.703849        -0.050637
 C         3.215050        -1.018312         0.673001
 O         4.135098        -1.804445         1.478938
 C         3.817412         0.046949        -0.197560
 C         3.203645         0.278252        -1.582259
 O         1.791331         0.499733        -1.381047
 C         2.665352         0.300583         0.825947
 H        -0.179371        -0.115909         1.406557
 H        -0.525244         1.107889         0.175543
 H        -0.748663        -0.426266        -0.462106
 H         1.497398        -2.456819         0.597721
 H         2.126687        -2.211882        -0.946974
 H         3.622228        -2.316987         2.116672
 H         4.829530         0.377657        -0.012772
 H         3.616522         1.185019        -1.935132
 H         3.192037        -0.621164        -2.220447
 H         2.553531         1.046606         1.448283
