19
Iteration:  4805
 C        -0.007786         0.390768         0.047508
 C         1.414708        -0.129368        -0.015336
 C         1.778960        -1.626744         0.123541
 C         3.218204        -1.147548         0.621030
 O         4.279342        -1.848823         1.227547
 C         3.760299         0.098084        -0.079845
 C         3.210865         0.223780        -1.491643
 O         1.824172         0.326305        -1.365763
 C         2.651621         0.284306         0.957711
 H        -0.566526        -0.076597         0.960962
 H        -0.066490         1.492463         0.186705
 H        -0.667296         0.099204        -0.711817
 H         1.306083        -2.038976         1.040651
 H         1.716505        -2.205514        -0.749816
 H         3.962266        -2.107905         2.108414
 H         4.796440         0.420090         0.202786
 H         3.512220         1.049756        -2.133443
 H         3.539899        -0.691511        -2.036857
 H         2.638583         1.045887         1.747391
