19
Iteration:  1596charge 0 multiplicity 1
 C         0.009637         0.222324         0.247465
 C         1.437734        -0.174487        -0.052758
 C         1.959678        -1.675400         0.024029
 C         3.283757        -1.122168         0.645157
 O         4.144594        -1.825978         1.495533
 C         3.770285         0.094128        -0.187079
 C         3.183596         0.285097        -1.597006
 O         1.769159         0.457538        -1.416551
 C         2.599025         0.265297         0.816669
 H        -0.329966        -0.031980         1.253554
 H        -0.136950         1.234247         0.011181
 H        -0.734153        -0.114338        -0.402352
 H         1.589793        -2.413164         0.716816
 H         2.090390        -2.205328        -0.903482
 H         3.750080        -1.721445         2.374910
 H         4.819127         0.260181         0.070585
 H         3.418072         1.219139        -1.974812
 H         3.562152        -0.484329        -2.322516
 H         2.571382         1.163366         1.518947
