19
Iteration:     6
 C         0.032281         0.170257         0.233317
 C         1.491471        -0.144171        -0.173851
 C         1.957245        -1.638069        -0.019936
 C         3.229997        -1.095361         0.644160
 O         3.998106        -1.794238         1.548308
 C         3.760175         0.095443        -0.181059
 C         3.203118         0.395900        -1.505262
 O         1.805866         0.350095        -1.396482
 C         2.594319         0.253493         0.854001
 H         0.011654        -0.266991         1.268724
 H        -0.073222         1.290387         0.373805
 H        -0.585194        -0.339981        -0.528446
 H         1.447255        -2.082949         0.859195
 H         2.121987        -2.206983        -0.964221
 H         4.678902        -2.333818         1.088951
 H         4.730047         0.562582         0.065893
 H         3.621190         1.318354        -1.994006
 H         3.506254        -0.374518        -2.250032
 H         2.587014         0.841492         1.804177
