19
Iteration:  2928
 C         0.100029         0.157683         0.236198
 C         1.471438        -0.163354        -0.115475
 C         1.944786        -1.679229         0.033915
 C         3.209928        -1.130691         0.629019
 O         4.123231        -1.860024         1.499241
 C         3.727283         0.044706        -0.221882
 C         3.166727         0.552769        -1.576131
 O         1.723297         0.373748        -1.463029
 C         2.712162         0.176414         0.924831
 H        -0.263590        -0.259564         1.241116
 H         0.133002         1.370938         0.274658
 H        -0.640765         0.005564        -0.588313
 H         1.261003        -2.097069         0.734873
 H         2.000556        -2.176987        -0.892589
 H         3.756607        -1.559679         2.355731
 H         4.713609         0.407319         0.167072
 H         3.455405         1.537346        -1.787662
 H         3.504342         0.127199        -2.499244
 H         2.690594         0.665013         1.849269
