19
Iteration:   496
 C         0.066281         0.248916         0.287576
 C         1.475160        -0.222352        -0.148678
 C         1.942580        -1.694850         0.019423
 C         3.233373        -1.144505         0.664079
 O         4.072686        -1.922821         1.609229
 C         3.741018         0.151520        -0.214758
 C         3.147626         0.617440        -1.538722
 O         1.791115         0.223330        -1.524897
 C         2.696589         0.254907         0.760455
 H        -0.207751        -0.296370         1.239450
 H         0.049602         1.340884         0.545377
 H        -0.563713         0.029250        -0.580001
 H         1.345033        -2.339550         0.671170
 H         2.043342        -2.212340        -0.900751
 H         3.884666        -1.351675         2.394652
 H         4.732346         0.394968         0.074019
 H         3.200283         1.696003        -1.500425
 H         3.679570         0.280691        -2.514774
 H         2.527414         0.850510         1.628816
