19
Iteration:  4553charge 0 multiplicity 1
 C         0.184903         0.285271         0.408931
 C         1.518606        -0.270773        -0.124014
 C         1.866096        -1.769626        -0.137759
 C         3.280916        -1.188595         0.520827
 O         3.893313        -1.732292         1.680829
 C         3.832948         0.139481        -0.236044
 C         3.237935         0.579577        -1.526325
 O         1.756325         0.317636        -1.395569
 C         2.650484         0.157080         0.741542
 H        -0.052968         0.153757         1.485199
 H         0.127435         1.385394         0.383958
 H        -0.485749        -0.180048        -0.210054
 H         1.357266        -2.344469         0.686903
 H         1.740788        -2.206438        -1.202593
 H         3.995235        -2.699761         1.490828
 H         4.757317         0.548419         0.115577
 H         3.299049         1.727295        -1.865307
 H         3.626923        -0.038299        -2.452516
 H         2.516460         0.845794         1.607423
