19
Iteration:  2605
 C         0.027862         0.375085         0.286509
 C         1.418118        -0.173393        -0.070108
 C         1.967959        -1.710054         0.083786
 C         3.269693        -1.196332         0.519635
 O         4.122363        -1.738037         1.482580
 C         3.767818         0.068740        -0.191979
 C         3.202714         0.520534        -1.502691
 O         1.785677         0.186580        -1.429972
 C         2.615653         0.226976         0.736411
 H        -0.153985         0.094393         1.337693
 H        -0.332414         1.414317         0.064376
 H        -0.755343        -0.170562        -0.430201
 H         1.506944        -2.333652         0.939066
 H         1.937067        -2.396280        -0.747033
 H         3.826770        -2.572172         1.866041
 H         4.565569         0.613303         0.474342
 H         3.547837         1.541182        -1.656498
 H         3.666232         0.132235        -2.419768
 H         2.570896         0.905705         1.749491
