19
Iteration:  4024
 C        -0.047369         0.157443         0.118384
 C         1.473394        -0.084440        -0.031285
 C         1.932357        -1.602452         0.099694
 C         3.285347        -1.093050         0.613497
 O         4.127207        -1.896640         1.453950
 C         3.771334         0.146279        -0.194731
 C         3.145875         0.295416        -1.620889
 O         1.806812         0.526695        -1.332031
 C         2.681566         0.174277         0.964287
 H        -0.431310        -0.511580         0.864312
 H        -0.301001         1.229145         0.052562
 H        -0.595726        -0.179858        -0.787259
 H         1.285221        -1.950180         1.003520
 H         1.811047        -2.246277        -0.812978
 H         4.170139        -2.794862         1.063207
 H         4.654799         0.756815         0.179058
 H         3.684995         1.234144        -2.162123
 H         3.283597        -0.619057        -2.230311
 H         2.730873         0.836053         1.865954
