19
Iteration:   304
 C         0.050965         0.173269         0.125885
 C         1.475546        -0.153700        -0.136314
 C         1.965980        -1.629690         0.010512
 C         3.251150        -1.130735         0.610676
 O         4.053412        -1.898341         1.525185
 C         3.771005         0.151406        -0.116335
 C         3.187235         0.367832        -1.528305
 O         1.764931         0.403356        -1.375370
 C         2.595005         0.271335         0.902103
 H        -0.186942         0.132484         1.217658
 H        -0.070582         1.218269        -0.256236
 H        -0.693895        -0.587715        -0.448047
 H         1.340278        -2.187361         0.684532
 H         1.866814        -2.306637        -0.799018
 H         4.958530        -1.514010         1.408248
 H         4.787496         0.514617         0.111686
 H         3.396369         1.393980        -1.983801
 H         3.481039        -0.430512        -2.247010
 H         2.601668         0.835837         1.867174
