19
Iteration:  4383charge 0 multiplicity 1
 C         0.087603         0.273971         0.408816
 C         1.459219        -0.147517        -0.155060
 C         2.020254        -1.695571        -0.019958
 C         3.271067        -1.083734         0.623923
 O         3.865925        -1.961766         1.585734
 C         3.814934         0.074912        -0.233744
 C         3.173725         0.514208        -1.550518
 O         1.769583         0.271306        -1.511614
 C         2.640516         0.255557         0.789040
 H        -0.089242        -0.256907         1.380486
 H         0.095626         1.344912         0.608319
 H        -0.743450        -0.013114        -0.225024
 H         1.510920        -2.200424         0.884482
 H         2.136912        -2.092987        -1.062536
 H         4.777416        -1.664521         1.730768
 H         4.745265         0.492205         0.007519
 H         3.433114         1.697521        -1.633257
 H         3.725085         0.094983        -2.444062
 H         2.760464         1.076761         1.578198
