19
Iteration:   521charge 0 multiplicity 1
 C         0.015359         0.189697         0.213181
 C         1.467140        -0.171266        -0.077955
 C         1.972614        -1.694601         0.072842
 C         3.256559        -1.139273         0.555534
 O         4.075382        -1.699471         1.486615
 C         3.833040         0.014544        -0.189233
 C         3.191656         0.486826        -1.469016
 O         1.756606         0.302190        -1.432563
 C         2.643202         0.224722         0.826765
 H        -0.470608        -0.347634         0.962771
 H         0.147332         1.134665         0.636343
 H        -0.448251         0.297999        -0.793437
 H         1.315187        -2.338891         0.858069
 H         1.974781        -2.319182        -0.882573
 H         3.332772        -2.214779         1.843802
 H         4.799269         0.322435         0.266442
 H         3.461360         1.577225        -1.600967
 H         3.557866        -0.019726        -2.501993
 H         2.609215         1.083078         1.525410
