19
Iteration:  2168charge 0 multiplicity 1
 C         0.135904         0.256186         0.510458
 C         1.445703        -0.212917        -0.153155
 C         2.010893        -1.748679        -0.218535
 C         3.244561        -1.199063         0.505724
 O         3.900554        -1.660692         1.735747
 C         3.786822         0.004160        -0.214657
 C         3.203894         0.496108        -1.558275
 O         1.757718         0.448721        -1.443202
 C         2.619328         0.087939         0.760136
 H         0.022642        -0.226658         1.543114
 H        -0.002204         1.377841         0.572430
 H        -0.729655         0.012005        -0.126125
 H         1.609174        -2.564531         0.444404
 H         2.114442        -2.214255        -1.161421
 H         4.683915        -2.231906         1.557553
 H         4.773015         0.563216        -0.052879
 H         3.615125         1.545006        -1.860980
 H         3.569847        -0.170309        -2.311286
 H         2.575314         0.847223         1.503224
