19
Iteration:    15
 C         0.138732         0.161136         0.325823
 C         1.463938        -0.143636        -0.203147
 C         1.988767        -1.616146        -0.007000
 C         3.220980        -1.046159         0.590570
 O         3.906217        -1.834137         1.594044
 C         3.789168         0.114836        -0.188323
 C         3.234624         0.472787        -1.531552
 O         1.818185         0.264672        -1.504815
 C         2.567497         0.232668         0.852306
 H         0.224290        -0.489240         1.251945
 H        -0.125386         1.283590         0.642751
 H        -0.782288        -0.169773        -0.130021
 H         1.444967        -2.054065         0.753419
 H         1.977893        -2.368907        -0.686731
 H         4.707141        -2.191516         1.136663
 H         4.722180         0.712317         0.037285
 H         3.449504         1.579195        -1.807871
 H         3.576380        -0.256619        -2.251996
 H         2.504392         0.707542         1.923490
