19
Iteration:  2318charge 0 multiplicity 1
 C         0.180906         0.160530         0.429436
 C         1.536214        -0.172804        -0.155183
 C         1.962188        -1.751326        -0.079624
 C         3.213662        -1.099014         0.586965
 O         3.830663        -1.768348         1.550515
 C         3.757796         0.124874        -0.165526
 C         3.200518         0.434401        -1.615194
 O         1.768183         0.305364        -1.369798
 C         2.677146         0.284140         0.782967
 H         0.059245        -0.257127         1.452380
 H         0.353678         1.260516         0.534621
 H        -0.616407        -0.083984        -0.117083
 H         1.402241        -2.276892         0.718486
 H         2.030338        -2.143137        -1.130890
 H         4.721734        -2.052518         1.244629
 H         4.787706         0.661702         0.163702
 H         3.455798         1.438477        -1.915770
 H         3.426774        -0.311431        -2.428337
 H         2.584725         1.146582         1.548403
