19
Iteration:  1883
 C         0.065511         0.325717         0.230600
 C         1.462241        -0.159405        -0.124862
 C         1.926246        -1.681246         0.138498
 C         3.246954        -1.150817         0.655094
 O         4.109418        -1.953539         1.329532
 C         3.781605         0.144396        -0.155784
 C         3.174747         0.576556        -1.464763
 O         1.829877         0.097745        -1.480993
 C         2.526820         0.345616         0.819019
 H        -0.022637         0.017699         1.271897
 H         0.115602         1.419239         0.432966
 H        -0.693436        -0.096516        -0.432478
 H         1.312677        -2.008908         1.072785
 H         1.794305        -2.428506        -0.742963
 H         4.161283        -1.784783         2.292124
 H         4.809197         0.441668         0.155939
 H         3.175749         1.654021        -1.578449
 H         3.757878         0.116774        -2.369943
 H         2.493910         1.281768         1.499858
