19
Iteration:  4435
 C        -0.020894         0.244356         0.203182
 C         1.446071        -0.104992        -0.104714
 C         1.929318        -1.596907         0.075445
 C         3.204095        -1.136549         0.714281
 O         4.109620        -1.946123         1.378461
 C         3.744407         0.005307        -0.110245
 C         3.249927         0.409630        -1.557934
 O         1.781596         0.329977        -1.416165
 C         2.649191         0.302312         0.866433
 H        -0.332878         0.444075         1.323913
 H        -0.276149         1.329151        -0.065428
 H        -0.734839        -0.436658        -0.286331
 H         1.224142        -2.032978         0.748215
 H         1.943187        -2.140365        -0.878117
 H         5.003744        -1.613791         1.226292
 H         4.735959         0.385764         0.211163
 H         3.566643         1.355178        -1.788573
 H         3.676925        -0.211248        -2.291177
 H         2.646625         1.037940         1.731355
