19
Iteration:   865
 C        -0.122103         0.131621         0.029225
 C         1.457720        -0.098413         0.013180
 C         2.041742        -1.633116         0.117520
 C         3.281198        -1.090765         0.698047
 O         4.235587        -1.861957         1.350566
 C         3.740599         0.023174        -0.182206
 C         3.164154         0.227639        -1.551450
 O         1.768112         0.577407        -1.257540
 C         2.617366         0.309738         0.861070
 H        -0.785730        -0.540076         0.543914
 H        -0.493450         1.135424         0.038841
 H        -0.328701        -0.035740        -0.980997
 H         1.353142        -2.208075         0.799467
 H         2.080888        -2.290687        -0.797718
 H         3.873013        -2.030606         2.227762
 H         4.664107         0.458897         0.099141
 H         3.655327         0.935198        -2.198390
 H         3.197104        -0.695746        -2.170141
 H         2.707626         1.143025         1.498594
