19
Iteration:   407charge 0 multiplicity 1
 C        -0.007434         0.045792         0.023925
 C         1.501221        -0.131524        -0.049577
 C         2.018674        -1.664161         0.025889
 C         3.236444        -1.091212         0.672262
 O         4.107369        -1.750673         1.471979
 C         3.766524         0.060978        -0.169908
 C         3.128423         0.260120        -1.535202
 O         1.759228         0.574259        -1.295378
 C         2.643001         0.317832         0.935322
 H        -0.586346        -0.184289         0.964976
 H        -0.284343         1.124615        -0.245238
 H        -0.373707        -0.542992        -0.787493
 H         1.569086        -2.179369         0.848955
 H         2.088137        -2.268316        -0.870085
 H         4.097383        -2.660086         1.124191
 H         4.805743         0.206072         0.271922
 H         3.628419         1.046969        -2.088335
 H         3.196746        -0.665319        -2.252794
 H         2.693259         1.136439         1.752923
