19
Iteration:  2743
 C         0.028973         0.166927         0.372215
 C         1.439893        -0.167583        -0.082324
 C         2.018005        -1.608829        -0.015963
 C         3.262320        -1.122751         0.602345
 O         4.058857        -1.802140         1.442588
 C         3.745633         0.137992        -0.153039
 C         3.246335         0.347969        -1.566676
 O         1.781686         0.329327        -1.457846
 C         2.594147         0.309063         0.820397
 H        -0.036549        -0.164719         1.430580
 H        -0.063685         1.290914         0.271646
 H        -0.726445        -0.305109        -0.193543
 H         1.363242        -2.193579         0.693880
 H         2.092025        -2.246161        -1.014970
 H         3.434501        -2.212352         2.069442
 H         4.742101         0.495402         0.168634
 H         3.541835         1.315716        -2.081667
 H         3.672345        -0.332853        -2.311031
 H         2.651217         0.913987         1.846791
