19
Iteration:   588charge 0 multiplicity 1
 C        -0.005784         0.123407         0.135856
 C         1.444363        -0.138212        -0.093512
 C         1.992886        -1.600529         0.019699
 C         3.274879        -1.023541         0.677632
 O         4.138857        -1.908919         1.326974
 C         3.735563         0.201827        -0.046199
 C         3.201235         0.251721        -1.578679
 O         1.821851         0.399530        -1.288965
 C         2.589602         0.373643         0.881402
 H        -0.270049         0.075254         1.160660
 H        -0.464007         1.015022        -0.244043
 H        -0.576244        -0.641913        -0.436892
 H         1.222088        -2.292190         0.597208
 H         2.186994        -2.202817        -0.944163
 H         3.554312        -2.354436         1.979870
 H         4.761017         0.460590         0.274366
 H         3.523026         1.201311        -2.133884
 H         3.591357        -0.787522        -2.087974
 H         2.456793         1.172732         1.639761
