19
Iteration:  4921charge 0 multiplicity 1
 C        -0.020078         0.232559         0.203927
 C         1.493407        -0.051218        -0.066073
 C         1.961232        -1.604244         0.047618
 C         3.263011        -1.122633         0.705474
 O         4.122559        -1.900542         1.404621
 C         3.701194         0.125530        -0.200456
 C         3.174199         0.082313        -1.581352
 O         1.770735         0.566482        -1.395691
 C         2.672156         0.330482         0.896552
 H        -0.343212        -0.215595         1.129070
 H        -0.172577         1.289886         0.105538
 H        -0.577792        -0.333713        -0.574039
 H         1.391654        -2.320019         0.670433
 H         2.321576        -2.182446        -0.955381
 H         3.715871        -2.166370         2.256432
 H         4.796781         0.262049         0.004694
 H         3.743238         0.726283        -2.267815
 H         3.290773        -0.915732        -1.931934
 H         2.741579         1.048542         1.716419
