19
Iteration:  1294charge 0 multiplicity 1
 C         0.053726         0.097557         0.255142
 C         1.485120        -0.099083        -0.146493
 C         1.953524        -1.594934        -0.016391
 C         3.264424        -1.130228         0.621744
 O         4.075478        -1.823121         1.520527
 C         3.741965         0.053044        -0.180475
 C         3.186855         0.376933        -1.518667
 O         1.785521         0.431458        -1.374629
 C         2.661349         0.258350         0.777755
 H         0.139789         0.082360         1.364058
 H        -0.370317         1.082423        -0.114474
 H        -0.630319        -0.683281        -0.235000
 H         1.264353        -2.045685         0.736456
 H         1.960203        -2.231734        -0.935192
 H         3.513962        -2.066495         2.288367
 H         4.711261         0.557991         0.041276
 H         3.468933         1.347221        -1.939626
 H         3.412241        -0.427490        -2.358884
 H         2.736863         0.863128         1.671302
