19
Iteration:    77
 C         0.049061         0.165574         0.178787
 C         1.476563        -0.158939        -0.101141
 C         1.914707        -1.686031        -0.023513
 C         3.287853        -1.155192         0.597727
 O         4.084336        -1.758581         1.602235
 C         3.740254         0.102367        -0.104467
 C         3.186533         0.406196        -1.521066
 O         1.698354         0.456019        -1.480910
 C         2.670886         0.212697         0.881105
 H        -0.215333        -0.157514         1.160266
 H         0.010608         1.216590         0.118449
 H        -0.489854        -0.276656        -0.605813
 H         1.293186        -2.065844         0.802121
 H         1.968717        -2.252451        -1.021277
 H         4.636100        -2.487352         1.228529
 H         4.807788         0.381299         0.123586
 H         3.615016         1.249121        -2.002168
 H         3.510560        -0.477386        -2.098834
 H         2.564701         0.827598         1.835299
