19
Iteration:  1314
 C        -0.056441         0.084416         0.120555
 C         1.476507        -0.117539         0.016521
 C         1.951623        -1.602911         0.078528
 C         3.266326        -1.071688         0.658966
 O         4.132796        -1.895064         1.396833
 C         3.784943         0.091967        -0.141003
 C         3.230419         0.231893        -1.609500
 O         1.742410         0.535715        -1.349962
 C         2.672885         0.366844         0.899736
 H        -0.504686         0.141358         1.047210
 H        -0.203595         0.976903        -0.453672
 H        -0.445150        -0.752675        -0.460252
 H         1.340817        -2.175647         0.848382
 H         2.064294        -2.202169        -0.898156
 H         3.578361        -2.392321         2.008257
 H         4.866071         0.391947         0.040731
 H         3.471762         1.127592        -2.160777
 H         3.489824        -0.632907        -2.215366
 H         2.570420         1.229083         1.578971
