19
Iteration:   265
 C        -0.095126         0.000998         0.024084
 C         1.489526        -0.022230        -0.126910
 C         1.935481        -1.488446         0.109912
 C         3.290410        -1.070577         0.726184
 O         4.114213        -2.006149         1.321023
 C         3.803559         0.097294        -0.082558
 C         3.182486         0.210326        -1.476366
 O         1.780361         0.500011        -1.372367
 C         2.613492         0.390159         0.961742
 H        -0.315752        -0.207870         1.046310
 H        -0.595852         0.951473        -0.178100
 H        -0.534918        -0.656601        -0.582632
 H         1.225063        -1.715721         0.939600
 H         2.033351        -2.079528        -0.873476
 H         5.007544        -1.671861         1.421911
 H         4.818622         0.438609         0.045878
 H         3.629001         1.019136        -2.000888
 H         3.359999        -0.742975        -1.991040
 H         2.561886         1.103335         1.728776
