19
Iteration:  4735
 C         0.117451         0.187306         0.394366
 C         1.507105        -0.130755        -0.137910
 C         1.920797        -1.624000        -0.056846
 C         3.287505        -1.107893         0.581215
 O         3.925022        -1.856118         1.538895
 C         3.824190         0.030802        -0.198959
 C         3.180642         0.388734        -1.575792
 O         1.771480         0.383428        -1.423227
 C         2.723468         0.300306         0.809590
 H         0.037409        -0.045518         1.444949
 H        -0.195828         1.228800         0.193223
 H        -0.669150        -0.560786        -0.076535
 H         1.381460        -2.168453         0.674770
 H         1.980978        -2.026989        -0.974705
 H         3.266172        -2.085123         2.220519
 H         4.803145         0.345516        -0.012471
 H         3.594773         1.376858        -1.873729
 H         3.384290        -0.266277        -2.517112
 H         2.682464         0.979172         1.644562
