19
Iteration:  3324
 C         0.014960         0.279666         0.194694
 C         1.425983        -0.153809        -0.091743
 C         1.912055        -1.644093        -0.000075
 C         3.232348        -1.080905         0.680700
 O         4.149100        -1.817645         1.327617
 C         3.700967         0.136393        -0.037188
 C         3.274807         0.385252        -1.410879
 O         1.772825         0.268949        -1.436292
 C         2.575448         0.212500         0.918698
 H        -0.191447         0.213324         1.307835
 H        -0.072133         1.250883        -0.252745
 H        -0.758288        -0.340450        -0.337839
 H         1.408343        -2.335334         0.747757
 H         2.037828        -2.216175        -1.048767
 H         4.625436        -2.318778         0.635146
 H         4.732685         0.628883         0.181115
 H         3.549397         1.410912        -1.874894
 H         3.831998        -0.132289        -2.136591
 H         2.583131         0.744241         1.837833
