19
Iteration:   453charge 0 multiplicity 1
 C        -0.076004         0.126952         0.257216
 C         1.458090        -0.159717        -0.115178
 C         1.995662        -1.641702         0.006981
 C         3.298653        -1.104138         0.593391
 O         4.006970        -1.828145         1.451517
 C         3.774642         0.128918        -0.079603
 C         3.287664         0.326782        -1.480968
 O         1.825937         0.400336        -1.423364
 C         2.503503         0.352147         0.821986
 H        -0.139608         0.206067         1.339879
 H        -0.298623         1.118723        -0.066732
 H        -0.799890        -0.559554        -0.144249
 H         1.508449        -2.293207         0.787575
 H         2.148281        -2.261478        -0.883697
 H         4.919958        -1.997797         1.107420
 H         4.758918         0.500481         0.145933
 H         3.675459         1.230639        -1.959873
 H         3.625667        -0.550905        -2.214094
 H         2.502507         0.853629         1.758314
