19
Iteration:   345charge 0 multiplicity 1
 C         0.107753         0.215815         0.402854
 C         1.485988        -0.229123        -0.163880
 C         1.956497        -1.755986        -0.125556
 C         3.110266        -1.026992         0.606309
 O         3.975235        -1.774003         1.612936
 C         3.703184         0.109073        -0.104960
 C         3.272812         0.524050        -1.561863
 O         1.872431         0.207538        -1.422583
 C         2.578352         0.334035         0.720077
 H        -0.063621        -0.450581         1.250116
 H         0.259124         1.209343         0.734177
 H        -0.787729         0.086652        -0.229116
 H         1.448509        -2.570487         0.611204
 H         2.201183        -2.227332        -1.129025
 H         4.728754        -2.191488         1.161087
 H         4.727953         0.385647         0.221910
 H         3.480837         1.617672        -1.810081
 H         3.582462        -0.005564        -2.432493
 H         2.415386         0.906008         1.668806
