19
Iteration:  2192
 C         0.223688         0.107499         0.322025
 C         1.538686        -0.215609        -0.176348
 C         1.949163        -1.652369        -0.079882
 C         3.147183        -1.138625         0.653098
 O         3.965316        -1.759420         1.602916
 C         3.736346         0.116522        -0.178626
 C         3.138280         0.423348        -1.550363
 O         1.737234         0.455963        -1.420911
 C         2.692615         0.220673         0.828516
 H         0.095692        -0.353632         1.313750
 H         0.221764         1.191757         0.524069
 H        -0.760644         0.102392        -0.313099
 H         1.258483        -2.349261         0.470380
 H         2.170469        -2.273979        -1.024520
 H         4.480317        -2.462570         1.159696
 H         4.832706         0.385606        -0.023074
 H         3.476161         1.448600        -1.911072
 H         3.574179        -0.317698        -2.293381
 H         2.431615         0.901065         1.734913
