19
Iteration:   899
 C        -0.068578         0.126656         0.229910
 C         1.482948        -0.082300        -0.101459
 C         1.948917        -1.592097        -0.011939
 C         3.225832        -1.101753         0.619120
 O         4.224719        -1.765516         1.370527
 C         3.751614         0.082237        -0.102933
 C         3.240048         0.222005        -1.535091
 O         1.768024         0.476492        -1.386748
 C         2.588367         0.249221         0.887086
 H        -0.538055        -0.400386         0.997139
 H        -0.266511         1.146347         0.358770
 H        -0.354339        -0.209415        -0.700318
 H         1.253971        -1.921234         0.814614
 H         1.976124        -2.237937        -0.966143
 H         3.922771        -2.173175         2.191348
 H         4.786491         0.292851         0.244036
 H         3.684947         1.011173        -2.098554
 H         3.341015        -0.828667        -1.843328
 H         2.428187         0.856838         1.805283
