19
Iteration:   621
 C        -0.017294         0.166616         0.240859
 C         1.433845        -0.154838        -0.118761
 C         1.895662        -1.690269         0.045380
 C         3.258414        -1.215822         0.552788
 O         4.141777        -1.814142         1.500722
 C         3.771792         0.044386        -0.137877
 C         3.228696         0.548784        -1.479694
 O         1.816579         0.351762        -1.453921
 C         2.651449         0.286702         0.772776
 H        -0.206869         0.170939         1.302079
 H        -0.380555         1.035602        -0.285778
 H        -0.480519        -0.758223        -0.145879
 H         1.143791        -2.047119         0.873066
 H         1.880523        -2.381119        -0.864193
 H         3.666690        -1.636067         2.345904
 H         4.790296         0.211383         0.169324
 H         3.381696         1.690991        -1.488896
 H         3.759444         0.183286        -2.491258
 H         2.589427         0.846231         1.689591
