19
Iteration:  4637
 C        -0.028017         0.161622         0.085596
 C         1.413566        -0.037184        -0.005760
 C         1.960939        -1.499586         0.169218
 C         3.298013        -1.073446         0.583765
 O         4.041089        -1.972061         1.246035
 C         3.848480         0.072623        -0.106264
 C         3.155977         0.151960        -1.457424
 O         1.798011         0.463231        -1.368971
 C         2.662783         0.316995         0.933433
 H        -0.534028        -0.492326         0.758886
 H        -0.354516         1.220102        -0.004413
 H        -0.569142        -0.250763        -0.953155
 H         1.378764        -1.938805         1.065905
 H         1.908444        -2.061656        -0.749463
 H         4.710739        -1.456937         1.704327
 H         4.715648         0.704380         0.177153
 H         3.518656         0.949553        -2.024261
 H         3.431824        -0.775018        -1.961147
 H         2.767883         0.874637         1.886764
