19
Iteration:  1862charge 0 multiplicity 1
 C         0.111140         0.279409         0.264845
 C         1.467180        -0.177993        -0.031324
 C         1.925394        -1.732280         0.053024
 C         3.182415        -1.169203         0.591261
 O         4.025635        -1.790822         1.435004
 C         3.754555         0.145380        -0.230594
 C         3.226083         0.582704        -1.523708
 O         1.749957         0.134200        -1.470849
 C         2.718619         0.206113         0.847508
 H        -0.306169         0.288021         1.318200
 H         0.192394         1.457918         0.247041
 H        -0.604912        -0.113772        -0.511769
 H         1.309773        -2.310163         0.856748
 H         2.016983        -2.319259        -0.951388
 H         3.862602        -1.465818         2.326308
 H         4.804702         0.349993         0.072320
 H         3.317009         1.668874        -1.438148
 H         3.802356         0.360664        -2.527376
 H         2.710052         0.712318         1.885437
