19
Iteration:  1649charge 0 multiplicity 1
 C        -0.056273         0.027824         0.207404
 C         1.457836        -0.012356        -0.031205
 C         1.979062        -1.564343         0.066390
 C         3.278301        -1.067894         0.653210
 O         4.136289        -1.868220         1.434721
 C         3.747619         0.012537        -0.164808
 C         3.231936         0.180305        -1.555925
 O         1.797851         0.494388        -1.367827
 C         2.610224         0.453901         0.784943
 H        -0.365134        -0.335060         1.215804
 H        -0.505527         1.051926         0.191531
 H        -0.574134        -0.470499        -0.593840
 H         1.315990        -2.036093         0.870556
 H         1.988563        -2.160679        -0.890860
 H         3.722248        -2.682115         1.750814
 H         4.689333         0.520330         0.022406
 H         3.597679         1.013556        -2.139918
 H         3.387302        -0.742683        -2.180164
 H         2.960506         1.222398         1.531335
