19
Iteration:  3964
 C         0.139405         0.130347         0.457900
 C         1.492333        -0.180735        -0.152341
 C         1.890792        -1.649979        -0.098238
 C         3.256967        -1.205698         0.566815
 O         3.917319        -1.846309         1.622999
 C         3.742876         0.111002        -0.195959
 C         3.282813         0.494632        -1.582928
 O         1.788883         0.441284        -1.496608
 C         2.632684         0.230142         0.795169
 H         0.250370         0.047840         1.665784
 H        -0.191959         1.195928         0.583321
 H        -0.675717        -0.502242         0.009327
 H         1.258367        -2.137097         0.629850
 H         1.911746        -2.095444        -1.071372
 H         4.833952        -2.130386         1.418869
 H         4.795677         0.430950         0.143496
 H         3.509521         1.537387        -1.664923
 H         3.417275        -0.155036        -2.477719
 H         2.471637         0.879084         1.617483
