19
Iteration:   542
 C         0.010645         0.168092         0.177661
 C         1.418801        -0.094989        -0.098334
 C         1.942317        -1.665867         0.009760
 C         3.171424        -1.137768         0.665321
 O         4.208218        -1.775675         1.452554
 C         3.730064         0.141971        -0.145095
 C         3.239989         0.329325        -1.583547
 O         1.839002         0.376211        -1.364631
 C         2.574501         0.305856         0.901042
 H        -0.297393        -0.542381         0.929252
 H        -0.145813         1.142820         0.567597
 H        -0.567534         0.092978        -0.786650
 H         1.203770        -2.070259         0.781235
 H         1.813582        -2.321698        -0.855555
 H         4.004416        -2.723549         1.648800
 H         4.710883         0.618101         0.046102
 H         3.641910         1.199106        -2.119486
 H         3.477178        -0.663057        -2.232309
 H         2.498937         0.857566         1.860499
