19
Iteration:    36charge 0 multiplicity 1
 C         0.089203         0.153079         0.487015
 C         1.507874        -0.259765        -0.085877
 C         1.934344        -1.717918        -0.035254
 C         3.221473        -1.162512         0.562828
 O         3.874914        -1.811666         1.613640
 C         3.769079         0.176994        -0.128096
 C         3.291907         0.558363        -1.553122
 O         1.821879         0.246136        -1.558197
 C         2.625637         0.345959         0.684695
 H        -0.241656        -0.335133         1.440041
 H         0.080605         1.358020         0.491822
 H        -0.624120         0.019488        -0.290482
 H         1.388112        -2.427528         0.544653
 H         1.960892        -2.169840        -0.968497
 H         4.737255        -2.179038         1.451767
 H         4.814841         0.448518         0.266286
 H         3.377406         1.680539        -1.679665
 H         3.720774        -0.058014        -2.338846
 H         2.496461         1.321653         1.373866
