19
Iteration:   806
 C         0.089365         0.179452         0.478610
 C         1.392263        -0.249714        -0.216867
 C         1.957806        -1.680643        -0.054780
 C         3.208318        -1.055077         0.569468
 O         4.058730        -1.745629         1.454983
 C         3.746548         0.085801        -0.108232
 C         3.338158         0.473604        -1.441822
 O         1.840638         0.200607        -1.518448
 C         2.546019         0.344285         0.758144
 H         0.208380         0.290797         1.646285
 H         0.113373         1.335279         0.275507
 H        -0.967502        -0.348190         0.263212
 H         1.411746        -2.310191         0.613123
 H         2.083395        -2.038795        -1.026247
 H         3.362023        -2.324460         1.835073
 H         4.815385         0.321981         0.127269
 H         3.331695         1.606675        -1.619582
 H         3.610689        -0.147939        -2.295509
 H         2.444803         0.906190         1.735666
