19
Iteration:  4483
 C         0.005399         0.204545         0.127891
 C         1.383676        -0.086381        -0.062844
 C         1.938323        -1.555955         0.021877
 C         3.221105        -1.038342         0.627107
 O         4.051793        -1.867463         1.367101
 C         3.825079         0.127945        -0.146397
 C         3.174491         0.144644        -1.543131
 O         1.828105         0.500132        -1.308422
 C         2.628805         0.214308         0.978407
 H        -0.422721        -0.136712         1.042447
 H        -0.238416         1.241532         0.267492
 H        -0.463889        -0.292644        -0.794799
 H         1.480761        -2.131088         1.006563
 H         2.054864        -2.426268        -0.744100
 H         4.914152        -1.920631         0.900016
 H         4.856354         0.453603         0.045098
 H         3.751560         0.899623        -2.243728
 H         3.316533        -0.874991        -1.989033
 H         2.684529         0.694374         1.906891
