19
Iteration:  1864charge 0 multiplicity 1
 C         0.124962         0.274987         0.263658
 C         1.454100        -0.191694        -0.036131
 C         1.923638        -1.725439         0.073076
 C         3.177242        -1.139147         0.597495
 O         4.028358        -1.809911         1.421075
 C         3.732562         0.134081        -0.225411
 C         3.221221         0.586952        -1.530021
 O         1.772691         0.127508        -1.476148
 C         2.719292         0.217180         0.847112
 H        -0.348271         0.286518         1.356455
 H         0.182738         1.493678         0.252915
 H        -0.635784        -0.086465        -0.507874
 H         1.352349        -2.318103         0.849683
 H         2.045746        -2.291112        -0.907294
 H         3.875450        -1.473506         2.318324
 H         4.791876         0.348358         0.094354
 H         3.347101         1.701237        -1.445241
 H         3.786305         0.398356        -2.517678
 H         2.688924         0.707486         1.865292
