19
Iteration:  3424charge 0 multiplicity 1
 C         0.035381         0.079056         0.304944
 C         1.473738        -0.154615        -0.142561
 C         2.061498        -1.636165        -0.077914
 C         3.263474        -1.071273         0.525118
 O         3.976185        -1.771628         1.489736
 C         3.732551         0.123335        -0.135512
 C         3.240211         0.234821        -1.515928
 O         1.775883         0.568552        -1.305005
 C         2.590815         0.257445         0.829679
 H        -0.104948        -0.550525         1.144145
 H        -0.159009         1.039257         0.694944
 H        -0.559556         0.053821        -0.584506
 H         1.484051        -2.005890         0.747706
 H         2.156137        -2.324587        -1.047200
 H         4.325270        -2.619794         1.193326
 H         4.721863         0.375515         0.171807
 H         3.774417         1.018809        -2.132706
 H         3.194090        -0.705793        -2.043954
 H         2.499558         0.741688         1.815388
