19
Iteration:   463charge 0 multiplicity 1
 C         0.073596         0.164017         0.275977
 C         1.428796        -0.178615        -0.163304
 C         2.043523        -1.660765         0.038660
 C         3.210546        -1.059729         0.570649
 O         3.956374        -1.858375         1.474392
 C         3.708841         0.145175        -0.122576
 C         3.234209         0.388261        -1.497372
 O         1.851889         0.321536        -1.417289
 C         2.581749         0.299505         0.808831
 H        -0.038090         0.024165         1.381465
 H        -0.172796         1.191102        -0.044168
 H        -0.702185        -0.475014        -0.103864
 H         1.480866        -2.180113         0.786754
 H         2.143335        -2.203999        -0.866945
 H         4.923703        -1.636284         1.401730
 H         4.652070         0.549844         0.213747
 H         3.520702         1.434227        -1.650429
 H         3.644890        -0.269164        -2.371505
 H         2.374497         0.725017         1.771904
