19
Iteration:   120
 C        -0.031490         0.089645         0.060333
 C         1.434704        -0.072169        -0.069187
 C         1.999828        -1.621200         0.043814
 C         3.233493        -1.067064         0.698035
 O         4.129608        -1.884014         1.426487
 C         3.759117         0.117907        -0.075904
 C         3.173274         0.208208        -1.451204
 O         1.760035         0.517863        -1.430031
 C         2.641400         0.368085         0.951241
 H        -0.468100        -0.144555         1.004600
 H        -0.395055         1.040576        -0.139630
 H        -0.497115        -0.585585        -0.631064
 H         1.547431        -2.195856         0.856047
 H         2.089130        -2.062777        -1.018055
 H         4.535711        -2.327830         0.628849
 H         4.879566         0.338062         0.073980
 H         3.709282         0.896311        -2.052594
 H         3.258094        -0.740895        -2.009539
 H         2.721516         1.119930         1.834262
