19
Iteration:  4990
 C         0.073004         0.449400         0.269736
 C         1.509845        -0.189483        -0.156973
 C         1.868323        -1.651092         0.172344
 C         3.213222        -1.129024         0.599009
 O         4.142318        -1.860637         1.437181
 C         3.742569         0.047653        -0.180909
 C         3.240699         0.511233        -1.458485
 O         1.790776         0.091798        -1.493306
 C         2.586969         0.315623         0.791998
 H         0.029461        -0.113787         1.220911
 H         0.371416         1.466308         0.231353
 H        -0.618463         0.120850        -0.391533
 H         1.293801        -2.016607         1.106110
 H         1.716146        -2.351277        -0.758786
 H         3.586010        -2.484959         1.919325
 H         4.750255         0.259996         0.111787
 H         3.237489         1.566070        -1.569474
 H         3.539614         0.063529        -2.399961
 H         2.495408         1.276251         1.346554
