19
Iteration:  3611
 C         0.080341        -0.056699         0.298620
 C         1.495517        -0.096602        -0.120456
 C         2.007802        -1.587328        -0.123674
 C         3.170837        -1.069963         0.653334
 O         3.934511        -1.823932         1.595304
 C         3.770834         0.022233        -0.228725
 C         3.123244         0.328158        -1.564763
 O         1.821300         0.562135        -1.329357
 C         2.713990         0.314844         0.846914
 H        -0.085197        -0.683752         1.136438
 H        -0.033134         0.950425         0.832640
 H        -0.639203         0.015989        -0.548067
 H         1.414979        -2.267218         0.434358
 H         2.303037        -1.938882        -1.146248
 H         4.332269        -2.545699         1.064434
 H         4.886332         0.291943        -0.140031
 H         3.469900         1.371737        -1.921485
 H         3.283183        -0.559908        -2.363156
 H         2.758561         1.057357         1.637558
