19
Iteration:  2073
 C        -0.014466         0.223408         0.047951
 C         1.416740        -0.092416        -0.002306
 C         1.889862        -1.601128         0.062880
 C         3.223650        -1.097311         0.625122
 O         4.227313        -1.845633         1.375029
 C         3.685897         0.132065        -0.126165
 C         3.194183         0.264181        -1.525743
 O         1.746029         0.369904        -1.329980
 C         2.701411         0.290962         0.994925
 H        -0.444350         0.066004         1.050834
 H        -0.000252         1.320923        -0.041513
 H        -0.459207        -0.251299        -0.904192
 H         1.329386        -2.125110         0.901641
 H         1.666347        -2.299173        -0.863327
 H         4.713108        -2.403176         0.749957
 H         4.750683         0.386681         0.206236
 H         3.579444         1.023919        -2.151055
 H         3.517041        -0.651437        -2.171706
 H         2.746801         0.861287         1.957484
