19
Iteration:   685charge 0 multiplicity 1
 C        -0.020983         0.207538         0.268095
 C         1.457683        -0.236278        -0.094013
 C         1.991981        -1.617571        -0.037912
 C         3.244559        -1.031338         0.653209
 O         4.129022        -1.844543         1.396835
 C         3.728962         0.200193        -0.101053
 C         3.251433         0.289732        -1.558164
 O         1.848995         0.321581        -1.401050
 C         2.539627         0.287667         0.874983
 H        -0.607511        -0.219651         1.103152
 H        -0.092697         1.243346         0.654472
 H        -0.697221         0.180426        -0.689175
 H         1.373981        -2.228238         0.625498
 H         2.146050        -2.145652        -0.947229
 H         3.603274        -2.461833         1.954885
 H         4.525345         0.802442         0.275396
 H         3.636182         1.198698        -2.004111
 H         3.623889        -0.429468        -2.270807
 H         2.669726         0.974460         1.666481
