19
Iteration:  2403charge 0 multiplicity 1
 C        -0.013816         0.218659         0.106767
 C         1.435339        -0.074057        -0.085036
 C         1.962025        -1.608936         0.110279
 C         3.252291        -1.083668         0.702945
 O         4.264600        -1.886262         1.308463
 C         3.706757         0.134127        -0.131377
 C         3.171623         0.250259        -1.552699
 O         1.787085         0.454074        -1.328969
 C         2.588632         0.215210         0.892406
 H        -0.353665        -0.077089         1.180327
 H        -0.334823         1.280563        -0.192302
 H        -0.670859        -0.415837        -0.600626
 H         1.545407        -2.195921         0.893815
 H         1.917804        -2.299569        -0.828010
 H         3.776321        -2.435828         1.957877
 H         4.676060         0.752167         0.185609
 H         3.580453         1.131175        -2.086698
 H         3.290902        -0.726063        -2.048209
 H         2.661396         1.036179         1.710898
