19
Iteration:  2709charge 0 multiplicity 1
 C         0.048936         0.014414         0.174225
 C         1.487208        -0.079095        -0.091628
 C         1.987667        -1.565981         0.016927
 C         3.250094        -1.147657         0.628883
 O         4.184812        -1.778950         1.492541
 C         3.692518        -0.040575        -0.160379
 C         3.127630         0.206080        -1.603007
 O         1.751027         0.613316        -1.310146
 C         2.649182         0.315576         0.807400
 H        -0.326658        -0.164243         1.207125
 H        -0.171335         1.121284         0.083067
 H        -0.585696        -0.561885        -0.483285
 H         1.105894        -2.003254         0.603384
 H         2.123470        -2.013555        -1.058833
 H         3.839628        -2.267074         2.248781
 H         4.713938         0.432884         0.037448
 H         3.575984         1.115936        -2.084343
 H         3.161058        -0.788844        -2.073816
 H         2.818767         1.104124         1.700071
