19
Iteration:  4635
 C        -0.018114         0.151665         0.080146
 C         1.413253        -0.022798         0.000062
 C         1.950504        -1.500173         0.173996
 C         3.303354        -1.076676         0.600505
 O         4.046090        -1.978401         1.241819
 C         3.848393         0.076481        -0.102615
 C         3.159113         0.138060        -1.460582
 O         1.799022         0.481935        -1.384191
 C         2.647970         0.316073         0.938887
 H        -0.581770        -0.476669         0.818702
 H        -0.435894         1.203398        -0.015486
 H        -0.599843        -0.243526        -0.929840
 H         1.427510        -1.963397         0.986124
 H         1.899265        -2.152915        -0.662699
 H         4.754325        -1.444893         1.630336
 H         4.797944         0.694058         0.176949
 H         3.514091         1.034966        -2.010368
 H         3.446692        -0.863616        -1.998282
 H         2.743128         0.912819         1.881986
