19
Iteration:  4439charge 0 multiplicity 1
 C        -0.032453         0.262248         0.195580
 C         1.466839        -0.106853        -0.083856
 C         1.938018        -1.574226         0.068651
 C         3.207230        -1.115599         0.701197
 O         4.160288        -1.983745         1.394609
 C         3.753331        -0.005858        -0.105130
 C         3.244079         0.374947        -1.549761
 O         1.770013         0.354647        -1.390986
 C         2.599166         0.321506         0.853752
 H        -0.382770         0.388969         1.202821
 H        -0.252224         1.235617        -0.194195
 H        -0.772806        -0.363375        -0.346036
 H         1.131111        -2.148074         0.692354
 H         1.883784        -2.172500        -0.896252
 H         5.023327        -1.575781         1.149850
 H         4.662211         0.386196         0.246717
 H         3.579886         1.473605        -1.788364
 H         3.622634        -0.371424        -2.322735
 H         2.646472         1.076076         1.602858
