19
Iteration:  2631
 C         0.155350         0.295150         0.296114
 C         1.461122        -0.283349        -0.149958
 C         1.897828        -1.683767         0.056851
 C         3.152792        -1.072470         0.637751
 O         4.147110        -1.783176         1.407885
 C         3.711498         0.176297        -0.126723
 C         3.147470         0.495751        -1.534794
 O         1.821678         0.152360        -1.511149
 C         2.636096         0.316262         0.907447
 H         0.011900        -0.064755         1.311209
 H         0.149858         1.360077         0.332795
 H        -0.692929         0.182716        -0.351362
 H         1.196051        -2.154441         0.868170
 H         1.894143        -2.456594        -0.762157
 H         3.821749        -2.582654         1.838511
 H         4.729558         0.325306         0.019915
 H         3.374441         1.598746        -1.738346
 H         3.792153        -0.122323        -2.286806
 H         2.421257         0.825364         1.737198
