19
Iteration:  1570charge 0 multiplicity 1
 C         0.147406         0.314715         0.335119
 C         1.514517        -0.152007        -0.138762
 C         1.940854        -1.667278        -0.021034
 C         3.226294        -1.162723         0.606398
 O         4.078514        -1.795181         1.452503
 C         3.711276         0.131626        -0.121389
 C         3.165663         0.452935        -1.541124
 O         1.784239         0.116839        -1.489946
 C         2.624150         0.303041         0.816835
 H        -0.112792        -0.080902         1.327254
 H         0.084329         1.462724         0.299478
 H        -0.811697         0.037585        -0.216517
 H         1.352004        -2.164661         0.860776
 H         2.064959        -2.486421        -0.796559
 H         3.668970        -1.705535         2.326201
 H         4.677555         0.412638         0.293620
 H         3.154330         1.609204        -1.688381
 H         3.731974        -0.078794        -2.327266
 H         2.569705         0.940794         1.640811
