19
Iteration:  1176
 C        -0.038948         0.095814         0.054431
 C         1.451500        -0.034084        -0.098275
 C         1.889035        -1.652131         0.070407
 C         3.201173        -1.060436         0.745772
 O         4.274873        -1.863314         1.250165
 C         3.681596         0.123590        -0.092358
 C         3.223506         0.145826        -1.554998
 O         1.798682         0.548956        -1.317807
 C         2.644432         0.354183         0.969846
 H        -0.538215        -0.158793         1.075819
 H        -0.463562         1.083240        -0.209590
 H        -0.342815        -0.843307        -0.529842
 H         1.198929        -1.908305         0.888163
 H         1.761994        -2.346288        -0.801109
 H         3.961777        -2.493443         1.938020
 H         4.735153         0.535917        -0.013078
 H         3.625232         1.079872        -2.005207
 H         3.663217        -0.791961        -1.944790
 H         2.742571         0.961839         1.908344
