19
Iteration:  2456
 C         0.117088         0.246263         0.287054
 C         1.463364        -0.200799        -0.063364
 C         1.814284        -1.674245         0.075821
 C         3.169859        -1.140304         0.620400
 O         4.120001        -1.826189         1.350780
 C         3.785985         0.174368        -0.164806
 C         3.214845         0.570088        -1.537636
 O         1.843095         0.157324        -1.475822
 C         2.621980         0.251537         0.844714
 H        -0.256640         0.044992         1.289828
 H         0.035418         1.313397         0.142549
 H        -0.629771        -0.403580        -0.275975
 H         1.228622        -2.064711         0.922070
 H         1.969380        -2.416015        -0.689288
 H         3.706690        -1.951168         2.223353
 H         4.853414         0.544659         0.127863
 H         3.264732         1.744775        -1.603662
 H         3.749861        -0.010884        -2.335604
 H         2.565963         0.916102         1.805691
