19
Iteration:   128
 C         0.008002         0.095662         0.103033
 C         1.448099        -0.041360        -0.076450
 C         1.932114        -1.600317         0.043009
 C         3.205434        -1.072806         0.693900
 O         4.146094        -1.940863         1.459972
 C         3.741016         0.178582        -0.025026
 C         3.167118         0.231277        -1.514089
 O         1.761208         0.467346        -1.428543
 C         2.673300         0.368372         0.911942
 H        -0.190980        -0.304131         1.120641
 H        -0.386365         1.044442        -0.247201
 H        -0.253540        -0.683246        -0.752547
 H         1.208806        -2.213099         0.602124
 H         2.050426        -2.029132        -0.951082
 H         4.776545        -2.358245         0.812763
 H         4.721624         0.589091         0.011331
 H         3.510182         1.118426        -2.078388
 H         3.428577        -0.760571        -1.982475
 H         2.654843         1.017541         1.704532
