19
Iteration:  2030
 C         0.001206         0.287953         0.489111
 C         1.459067        -0.194990        -0.140837
 C         1.962759        -1.635495        -0.038757
 C         3.288758        -1.151729         0.581447
 O         4.014432        -1.818480         1.630867
 C         3.781304         0.059426        -0.176388
 C         3.250977         0.429749        -1.548828
 O         1.765291         0.304567        -1.545199
 C         2.563043         0.250101         0.740006
 H         0.000217        -0.240647         1.451906
 H         0.038160         1.372523         0.527399
 H        -0.922277         0.002023        -0.153366
 H         1.419924        -2.164527         0.750561
 H         1.891842        -2.333253        -0.923547
 H         4.896185        -2.026467         1.294952
 H         4.862505         0.360052        -0.036906
 H         3.447335         1.470708        -1.791393
 H         3.602168        -0.013682        -2.524771
 H         2.735887         0.998680         1.531324
