19
Iteration:  2913charge 0 multiplicity 1
 C         0.052752         0.216375         0.335399
 C         1.499178        -0.195580        -0.090023
 C         1.929462        -1.725467        -0.049113
 C         3.287937        -1.219653         0.564025
 O         4.061577        -1.789162         1.563995
 C         3.779400         0.093302        -0.210181
 C         3.170938         0.526393        -1.555066
 O         1.772645         0.413753        -1.381540
 C         2.649733         0.190813         0.721904
 H        -0.104642        -0.249221         1.321557
 H        -0.268890         1.252450         0.362954
 H        -0.619410        -0.133707        -0.538462
 H         1.430215        -2.367823         0.745007
 H         1.896014        -2.360067        -0.959318
 H         3.575372        -1.856202         2.398987
 H         4.781992         0.362513        -0.026301
 H         3.408642         1.616309        -1.656037
 H         3.556782        -0.137251        -2.389259
 H         2.708588         0.992554         1.580586
