19
Iteration:  4431charge 0 multiplicity 1
 C        -0.013564         0.248861         0.227558
 C         1.432040        -0.104419        -0.110183
 C         1.907193        -1.621830         0.075891
 C         3.204289        -1.149738         0.708581
 O         4.050658        -1.910444         1.368991
 C         3.737604         0.036911        -0.127027
 C         3.245111         0.424663        -1.530269
 O         1.801917         0.310227        -1.453334
 C         2.692678         0.287680         0.891334
 H        -0.141390         0.299720         1.283593
 H        -0.227179         1.288569        -0.039116
 H        -0.679102        -0.500257        -0.203672
 H         1.301413        -2.012763         0.911252
 H         2.035354        -2.151028        -0.858005
 H         4.987044        -1.644758         1.302106
 H         4.811019         0.365838         0.148782
 H         3.578058         1.510579        -1.820851
 H         3.703391        -0.199745        -2.387849
 H         2.659532         0.920319         1.746298
