19
Iteration:  4388
 C         0.101581         0.265242         0.400796
 C         1.453399        -0.165268        -0.155690
 C         1.994376        -1.664228         0.011977
 C         3.285140        -1.086780         0.563537
 O         3.848211        -1.965476         1.589188
 C         3.815130         0.096192        -0.234888
 C         3.183780         0.533123        -1.545845
 O         1.797644         0.250611        -1.495173
 C         2.644679         0.253651         0.772218
 H        -0.016556        -0.143936         1.407528
 H        -0.011800         1.332301         0.710406
 H        -0.793026        -0.046384        -0.175196
 H         1.502734        -2.224814         0.778809
 H         2.105086        -2.191333        -0.929115
 H         4.765340        -1.666480         1.726399
 H         4.746896         0.627514         0.148849
 H         3.392212         1.549606        -1.576427
 H         3.624467         0.138801        -2.467991
 H         2.744195         1.012601         1.486339
