19
Iteration:  1687charge 0 multiplicity 1
 C         0.143062         0.340319         0.307825
 C         1.460431        -0.171941        -0.044002
 C         1.927557        -1.704349         0.052439
 C         3.194834        -1.123446         0.554910
 O         4.141533        -1.838866         1.433163
 C         3.657121         0.185380        -0.157534
 C         3.216678         0.442746        -1.548241
 O         1.801472         0.158684        -1.470623
 C         2.566222         0.305151         0.836607
 H        -0.061743        -0.023841         1.294732
 H         0.165791         1.391843        -0.031406
 H        -0.576449        -0.076187        -0.471366
 H         1.537859        -2.302827         0.843938
 H         1.971652        -2.400365        -0.768370
 H         3.537438        -2.036122         2.169630
 H         4.590295         0.570189         0.228332
 H         3.483225         1.505317        -1.748869
 H         3.762169        -0.161376        -2.281827
 H         2.652519         0.871098         1.698879
