19
Iteration:  3772charge 0 multiplicity 1
 C        -0.025794         0.167550         0.366884
 C         1.428327        -0.159795        -0.168901
 C         1.957382        -1.618216        -0.111894
 C         3.270417        -1.165706         0.583351
 O         4.035234        -1.919701         1.522343
 C         3.745302         0.081068        -0.138071
 C         3.211046         0.435054        -1.546139
 O         1.807462         0.419159        -1.370376
 C         2.616034         0.281612         0.822504
 H        -0.098756        -0.358166         1.303267
 H        -0.024483         1.273657         0.574613
 H        -0.920685         0.102347        -0.278111
 H         1.261941        -2.247157         0.581390
 H         2.154579        -1.946924        -1.159615
 H         4.955921        -1.616662         1.398706
 H         4.828569         0.290348         0.276611
 H         3.637664         1.406414        -1.799255
 H         3.676726        -0.348758        -2.319580
 H         2.744897         0.937504         1.663763
