19
Iteration:  1285
 C         0.060117         0.126417         0.351565
 C         1.478762        -0.145292        -0.140844
 C         1.965647        -1.626658        -0.048754
 C         3.226831        -1.136943         0.605723
 O         4.046590        -1.777829         1.534955
 C         3.772872         0.050437        -0.195732
 C         3.264193         0.374392        -1.566081
 O         1.741117         0.443922        -1.463707
 C         2.646674         0.227047         0.818430
 H        -0.146320        -0.000900         1.495315
 H        -0.132668         1.220941         0.129826
 H        -0.644840        -0.693972        -0.062235
 H         1.299604        -2.078451         0.669250
 H         2.109021        -2.253577        -0.883438
 H         3.504195        -1.905534         2.343896
 H         4.764932         0.434513        -0.005663
 H         3.485931         1.430545        -1.702704
 H         3.778411        -0.248720        -2.390314
 H         2.540207         0.755904         1.731669
