19
Iteration:  3142
 C        -0.058437         0.167530         0.040329
 C         1.422310        -0.117921        -0.074137
 C         1.902188        -1.637294         0.113848
 C         3.308580        -1.176932         0.578565
 O         4.223207        -1.939815         1.378972
 C         3.735356         0.006943        -0.118447
 C         3.170908         0.399116        -1.450077
 O         1.788182         0.464086        -1.294546
 C         2.576463         0.336181         0.891703
 H        -0.506861         0.014475         1.043033
 H        -0.207194         1.193910        -0.208108
 H        -0.641896        -0.168991        -0.878414
 H         1.397734        -1.980803         1.092157
 H         1.697000        -2.346740        -0.745564
 H         5.112386        -1.698114         1.077035
 H         4.658476         0.591778         0.133508
 H         3.657567         1.399906        -1.749210
 H         3.463110        -0.307323        -2.271450
 H         2.640306         0.924258         1.746932
