19
Iteration:  4289
 C         0.085355         0.142297         0.179497
 C         1.478593        -0.070001         0.000486
 C         1.973947        -1.576231         0.094045
 C         3.247495        -1.117254         0.680405
 O         3.982860        -2.021751         1.342349
 C         3.745804         0.034956        -0.095963
 C         3.179988         0.363531        -1.549194
 O         1.789650         0.364610        -1.374221
 C         2.639703         0.429970         0.819102
 H        -0.437871         0.208781         1.173756
 H        -0.215679         1.269353        -0.112004
 H        -0.584056        -0.548494        -0.506857
 H         1.454915        -2.239948         0.753693
 H         2.081747        -1.874110        -0.905967
 H         4.915010        -1.712952         1.444662
 H         4.770088         0.366503         0.083937
 H         3.411486         1.355521        -1.804900
 H         3.507261        -0.339492        -2.326659
 H         2.661940         1.280347         1.539450
