19
Iteration:  3928charge 0 multiplicity 1
 C         0.100071         0.264280         0.301798
 C         1.486101        -0.191704        -0.025302
 C         1.911027        -1.679945         0.021489
 C         3.242928        -1.117809         0.556632
 O         3.956596        -1.857270         1.454207
 C         3.745372         0.096762        -0.148202
 C         3.182409         0.570691        -1.536744
 O         1.813740         0.247377        -1.411660
 C         2.647157         0.251719         0.857155
 H        -0.233580        -0.328675         1.141327
 H         0.213550         1.357441         0.281171
 H        -0.671439         0.038458        -0.463377
 H         1.390246        -2.347326         0.723594
 H         2.026943        -2.276768        -0.974028
 H         4.714303        -2.424850         1.193188
 H         4.823983         0.348004        -0.146968
 H         3.381132         1.596419        -1.634675
 H         3.736381         0.242947        -2.476345
 H         2.644662         0.968046         1.724040
