19
Iteration:  1287
 C         0.052080         0.118576         0.327902
 C         1.478771        -0.131494        -0.144906
 C         1.964095        -1.613782        -0.041062
 C         3.235259        -1.137121         0.609833
 O         4.051806        -1.786955         1.533515
 C         3.761619         0.048760        -0.196357
 C         3.257367         0.363244        -1.554142
 O         1.748998         0.444434        -1.443346
 C         2.654458         0.227194         0.804957
 H        -0.110642         0.017680         1.465597
 H        -0.127159         1.187836         0.104453
 H        -0.586202        -0.702953        -0.050791
 H         1.275936        -2.023699         0.675766
 H         2.109121        -2.249607        -0.881188
 H         3.509830        -1.934374         2.320049
 H         4.705633         0.481399        -0.045596
 H         3.421740         1.439644        -1.748582
 H         3.723305        -0.240341        -2.332460
 H         2.565427         0.750697         1.733451
