19
Iteration:  2681charge 0 multiplicity 1
 C        -0.090681         0.124311         0.137465
 C         1.457144        -0.094834        -0.052360
 C         1.960381        -1.660206         0.090363
 C         3.267255        -1.087970         0.586093
 O         4.159151        -1.818145         1.401984
 C         3.802121         0.103518        -0.161246
 C         3.192720         0.228868        -1.596548
 O         1.767296         0.516256        -1.297400
 C         2.682885         0.301887         0.857735
 H        -0.390608        -0.254840         1.116613
 H        -0.499338         1.146538         0.058807
 H        -0.645953        -0.397199        -0.747865
 H         1.323390        -2.129119         0.793350
 H         1.955699        -2.283353        -0.776286
 H         3.856184        -2.039623         2.297783
 H         4.832774         0.384771         0.036664
 H         3.496191         1.078031        -2.223339
 H         3.320230        -0.767213        -2.021187
 H         2.814874         0.864328         1.818666
