19
Iteration:   358
 C         0.163528         0.142313         0.367340
 C         1.491101        -0.220101        -0.175628
 C         1.961042        -1.676626        -0.054078
 C         3.182956        -1.129078         0.679558
 O         3.929591        -1.703207         1.558612
 C         3.795581         0.147975        -0.166625
 C         3.232954         0.468557        -1.486861
 O         1.778652         0.250748        -1.525659
 C         2.618374         0.271253         0.831027
 H        -0.128796        -0.550238         1.166023
 H         0.100133         1.137424         0.820761
 H        -0.639496         0.140678        -0.496730
 H         1.199134        -2.257242         0.520930
 H         2.148720        -2.124939        -1.030023
 H         4.390546        -2.409145         1.045458
 H         4.739345         0.509437         0.198456
 H         3.380497         1.591095        -1.693094
 H         3.765649        -0.114335        -2.221966
 H         2.501400         1.012458         1.592821
