19
Iteration:   619charge 0 multiplicity 1
 C        -0.009404         0.150807         0.240992
 C         1.426304        -0.137172        -0.105975
 C         1.898796        -1.689712         0.040451
 C         3.268765        -1.199542         0.558879
 O         4.138929        -1.821084         1.490901
 C         3.762139         0.038790        -0.132396
 C         3.223019         0.538988        -1.489407
 O         1.812997         0.354343        -1.465988
 C         2.660859         0.291990         0.784149
 H        -0.239969         0.233876         1.297211
 H        -0.376423         1.020226        -0.286602
 H        -0.526830        -0.795620        -0.212969
 H         1.154103        -2.010482         0.805180
 H         1.881724        -2.385113        -0.784464
 H         3.665162        -1.644839         2.318048
 H         4.814297         0.253552         0.178154
 H         3.422549         1.624087        -1.501559
 H         3.768640         0.158630        -2.375412
 H         2.588445         0.828439         1.760912
