19
Iteration:  3081charge 0 multiplicity 1
 C         0.045160         0.080019         0.481897
 C         1.453129        -0.088248        -0.172032
 C         2.059080        -1.679578        -0.110169
 C         3.237365        -1.078533         0.647070
 O         3.898590        -1.939743         1.505800
 C         3.817563         0.061088        -0.162595
 C         3.297404         0.438394        -1.557521
 O         1.738499         0.432890        -1.490416
 C         2.598775         0.335235         0.784480
 H        -0.123455        -0.524300         1.393058
 H         0.016379         1.146092         0.868426
 H        -0.718037        -0.247184        -0.194180
 H         1.657596        -2.534144         0.429706
 H         2.319132        -2.099892        -1.054746
 H         4.480447        -1.466665         2.122767
 H         4.831137         0.628141         0.135706
 H         3.589525         1.431966        -1.865379
 H         3.262480        -0.444890        -2.155814
 H         2.521366         1.145857         1.498214
