19
Iteration:   131
 C         0.009285         0.085600         0.109803
 C         1.482811        -0.038889        -0.084527
 C         1.906779        -1.567552         0.040965
 C         3.216562        -1.083497         0.707099
 O         4.139029        -1.949411         1.466419
 C         3.724473         0.188369        -0.049108
 C         3.174847         0.255001        -1.540455
 O         1.767188         0.439426        -1.406558
 C         2.663510         0.353940         0.891027
 H        -0.190678        -0.293002         1.074484
 H        -0.360111         1.012629        -0.171255
 H        -0.299042        -0.623706        -0.627009
 H         1.146693        -2.191553         0.509655
 H         2.030479        -2.118297        -0.976441
 H         4.830682        -2.335074         0.897504
 H         4.757198         0.670178         0.107396
 H         3.495465         1.097473        -2.080879
 H         3.480694        -0.694842        -2.013073
 H         2.608016         1.076182         1.800996
