19
Iteration:   839charge 0 multiplicity 1
 C         0.035222         0.111810         0.179632
 C         1.474544        -0.118530        -0.145478
 C         1.943310        -1.611499         0.098915
 C         3.255185        -1.090957         0.639938
 O         4.166004        -1.867481         1.464260
 C         3.738835         0.135616        -0.187181
 C         3.205815         0.379477        -1.521798
 O         1.732554         0.384198        -1.392007
 C         2.659058         0.286315         0.870479
 H        -0.385865        -0.426778         1.108923
 H        -0.250686         1.232452         0.092780
 H        -0.738576        -0.163004        -0.683518
 H         1.299549        -2.142234         0.780808
 H         1.962746        -2.169160        -0.804604
 H         3.540428        -2.408409         1.963366
 H         4.748677         0.538675         0.064815
 H         3.527493         1.375697        -2.025955
 H         3.513787        -0.437239        -2.241759
 H         2.810205         0.976580         1.741619
