19
Iteration:  4983charge 0 multiplicity 1
 C         0.119551         0.389637         0.219693
 C         1.444953        -0.166348        -0.172748
 C         1.864207        -1.651838         0.224179
 C         3.188394        -1.106053         0.659705
 O         4.174896        -1.848104         1.385803
 C         3.757958         0.028891        -0.126297
 C         3.230088         0.485590        -1.503924
 O         1.776998         0.137087        -1.499914
 C         2.635569         0.278887         0.816216
 H        -0.211021        -0.037248         1.194582
 H         0.211492         1.535850         0.340827
 H        -0.784003         0.278611        -0.545470
 H         1.165410        -1.939556         1.014637
 H         1.819625        -2.381910        -0.497022
 H         3.600710        -2.480469         1.867867
 H         4.877050         0.120327         0.075732
 H         3.315126         1.617392        -1.467744
 H         3.620484         0.069591        -2.535213
 H         2.415294         1.224452         1.333995
