19
Iteration:  1329
 C        -0.100814         0.117790         0.023059
 C         1.423930        -0.057582        -0.047555
 C         2.034741        -1.526024         0.150206
 C         3.247888        -1.017072         0.747257
 O         4.194282        -1.897319         1.253481
 C         3.713104         0.080821        -0.142757
 C         3.169628         0.183258        -1.506516
 O         1.837915         0.453069        -1.332658
 C         2.637452         0.357785         0.907926
 H        -0.603616         0.107668         1.108685
 H        -0.357371         1.193615        -0.298266
 H        -0.699511        -0.732422        -0.537142
 H         1.403977        -2.035097         0.881570
 H         2.121292        -2.142399        -0.729296
 H         3.750759        -2.598460         1.780763
 H         4.651012         0.480532         0.096037
 H         3.818886         0.915817        -1.992910
 H         3.199963        -0.847236        -2.086975
 H         2.837936         0.857962         1.828898
