19
Iteration:  1201charge 0 multiplicity 1
 C        -0.057168         0.114549         0.043678
 C         1.428528        -0.154143        -0.011174
 C         1.929960        -1.550299         0.088841
 C         3.277536        -1.041619         0.661151
 O         4.212620        -1.821868         1.350356
 C         3.859501        -0.023112        -0.153983
 C         3.166544         0.269076        -1.558922
 O         1.769619         0.496202        -1.296147
 C         2.575941         0.319801         0.906253
 H        -0.626701        -0.456375         0.836772
 H        -0.139368         1.217678         0.303548
 H        -0.455461        -0.270927        -0.927945
 H         1.431589        -2.063459         0.998283
 H         1.808252        -2.191239        -0.908794
 H         3.789357        -2.494192         1.902465
 H         4.765097         0.408135         0.155034
 H         3.592818         1.224122        -2.080392
 H         3.455361        -0.683172        -2.139813
 H         2.641035         1.066610         1.651160
