19
Iteration:  4362
 C         0.140585         0.243784         0.279145
 C         1.507155        -0.167621        -0.116698
 C         1.974533        -1.651530        -0.052097
 C         3.173069        -1.127071         0.667926
 O         4.018714        -1.917933         1.544915
 C         3.741787         0.038888        -0.164842
 C         3.138601         0.371309        -1.578506
 O         1.725629         0.411999        -1.417324
 C         2.673073         0.294087         0.835429
 H        -0.268308        -0.179436         1.145309
 H         0.042707         1.199835         0.629393
 H        -0.556944         0.020719        -0.507704
 H         1.174858        -2.338136         0.446954
 H         2.456045        -1.968792        -1.003376
 H         4.766425        -1.308857         1.665059
 H         4.699955         0.238997         0.158347
 H         3.670555         1.358538        -1.851485
 H         3.449790        -0.284421        -2.458482
 H         2.601699         1.074730         1.658495
