19
Iteration:   934
 C         0.149413         0.201100         0.391404
 C         1.481679        -0.198728        -0.134803
 C         2.029973        -1.649103        -0.047917
 C         3.190586        -1.083186         0.666006
 O         4.031429        -1.856034         1.502433
 C         3.756342         0.165222        -0.148682
 C         3.214934         0.529816        -1.530074
 O         1.752596         0.223005        -1.488518
 C         2.595576         0.285997         0.784724
 H        -0.010295         0.141222         1.407831
 H         0.049644         1.179257         0.023455
 H        -0.690961        -0.234629        -0.110008
 H         1.353857        -2.203176         0.675948
 H         2.327653        -2.401402        -0.861237
 H         3.428916        -2.481240         1.934516
 H         4.846866         0.307288         0.020033
 H         3.290292         1.542541        -1.901533
 H         3.577717        -0.006182        -2.424250
 H         2.402636         1.016567         1.607806
