19
Iteration:  2162
 C         0.058884         0.238418         0.491149
 C         1.410077        -0.193754        -0.113073
 C         2.005979        -1.730310        -0.184243
 C         3.305809        -1.223805         0.543065
 O         3.871991        -1.658644         1.702967
 C         3.785669         0.043340        -0.302060
 C         3.217464         0.463335        -1.504718
 O         1.794800         0.456215        -1.468033
 C         2.667136         0.074958         0.763984
 H        -0.071192        -0.052200         1.496530
 H         0.051405         1.299451         0.649339
 H        -0.976895        -0.050106         0.066479
 H         1.722987        -2.578292         0.444925
 H         2.199743        -2.112319        -1.318092
 H         4.640255        -2.193406         1.469992
 H         4.712714         0.426701         0.069955
 H         3.525850         1.429472        -1.758830
 H         3.650680        -0.191791        -2.382541
 H         2.594241         0.946317         1.541080
