19
Iteration:  2314charge 0 multiplicity 1
 C         0.206746         0.179310         0.417159
 C         1.501756        -0.191839        -0.096028
 C         1.943077        -1.693758        -0.100503
 C         3.206863        -1.115285         0.584520
 O         3.870842        -1.770754         1.553773
 C         3.755396         0.135749        -0.176646
 C         3.216688         0.417920        -1.623331
 O         1.782989         0.308285        -1.410405
 C         2.653444         0.265389         0.832048
 H         0.020859        -0.206793         1.426121
 H         0.292316         1.276901         0.462762
 H        -0.765348        -0.154552        -0.207012
 H         1.530734        -2.215451         0.736803
 H         1.984796        -2.201487        -1.118964
 H         4.783319        -1.970342         1.307930
 H         4.662474         0.499443         0.078594
 H         3.337258         1.480515        -1.865714
 H         3.415973        -0.310466        -2.367865
 H         2.600451         0.977422         1.574282
