19
Iteration:  1062
 C         0.054544         0.111988         0.212052
 C         1.493190        -0.077392        -0.027402
 C         1.930047        -1.684358        -0.003006
 C         3.243879        -1.099483         0.653875
 O         4.153151        -1.810545         1.485774
 C         3.770791         0.122678        -0.156087
 C         3.179727         0.327274        -1.581514
 O         1.784702         0.385574        -1.462126
 C         2.596608         0.359630         0.893296
 H        -0.479989        -0.618325         0.874644
 H        -0.173974         1.104491         0.747083
 H        -0.496963         0.000343        -0.753700
 H         1.355923        -2.127138         0.751373
 H         1.844278        -2.229020        -0.872965
 H         3.710240        -2.688019         1.503467
 H         4.642387         0.641934         0.242513
 H         3.382044         1.285698        -1.973381
 H         3.447552        -0.442494        -2.269099
 H         2.687112         0.903575         1.842327
