19
Iteration:  3089
 C         0.070642         0.134778         0.476150
 C         1.437337        -0.115221        -0.154480
 C         2.069737        -1.586437        -0.130109
 C         3.296378        -1.111826         0.623428
 O         3.955617        -1.971756         1.483560
 C         3.790118         0.109754        -0.087152
 C         3.239149         0.346391        -1.462480
 O         1.700240         0.419072        -1.510582
 C         2.576137         0.341573         0.769293
 H        -0.261486        -0.583231         1.238660
 H        -0.163452         1.149918         0.708146
 H        -0.629496        -0.185589        -0.351954
 H         1.503175        -2.398595         0.557013
 H         2.207466        -1.986416        -1.194710
 H         4.520671        -1.348068         1.962798
 H         4.818988         0.532764         0.250470
 H         3.670363         1.242009        -2.022363
 H         3.646561        -0.420144        -2.177721
 H         2.571166         1.156463         1.408667
