19
Iteration:  4391
 C         0.106798         0.257455         0.390691
 C         1.459811        -0.176681        -0.140493
 C         1.977793        -1.632104         0.025592
 C         3.288928        -1.102210         0.540274
 O         3.841670        -1.957760         1.580755
 C         3.810236         0.107958        -0.224597
 C         3.202944         0.534129        -1.547030
 O         1.809358         0.240941        -1.484777
 C         2.650016         0.252736         0.749273
 H         0.035352        -0.194799         1.497045
 H        -0.034902         1.384812         0.669541
 H        -0.786700        -0.053006        -0.158405
 H         1.470641        -2.277653         0.708224
 H         2.044580        -2.320113        -0.864215
 H         4.754178        -1.687505         1.741301
 H         4.706470         0.661588         0.191564
 H         3.344565         1.639462        -1.555853
 H         3.519717         0.109807        -2.474152
 H         2.703816         1.044877         1.542584
