19
Iteration:  2530
 C         0.027509         0.072803         0.293260
 C         1.444979        -0.051004        -0.109446
 C         1.978901        -1.544975        -0.078992
 C         3.272273        -1.086967         0.715522
 O         4.143780        -1.817673         1.376527
 C         3.781232         0.095586        -0.079509
 C         3.175490         0.163434        -1.552574
 O         1.766070         0.502818        -1.424623
 C         2.602477         0.273693         0.850191
 H        -0.294961        -0.466553         1.152081
 H        -0.237906         1.087493         0.492401
 H        -0.631611        -0.288625        -0.571657
 H         1.313469        -1.959735         0.811678
 H         1.849195        -2.101229        -1.015188
 H         3.632889        -2.095268         2.174732
 H         4.728668         0.704596         0.166259
 H         3.762301         0.731031        -2.322738
 H         3.409442        -0.844970        -2.033765
 H         2.663892         0.958019         1.814394
