19
Iteration:   215charge 0 multiplicity 1
 C         0.063011         0.263920         0.280645
 C         1.465870        -0.184097        -0.150778
 C         2.043388        -1.696985        -0.087343
 C         3.203452        -1.156143         0.644365
 O         4.021294        -1.872886         1.572216
 C         3.774119         0.110455        -0.128581
 C         3.192912         0.442417        -1.516227
 O         1.752572         0.323550        -1.448195
 C         2.566424         0.284440         0.797058
 H        -0.321594        -0.227503         1.239207
 H        -0.104089         1.354247         0.466081
 H        -0.749383         0.016293        -0.589772
 H         1.615638        -2.357828         0.720629
 H         2.234972        -2.218483        -1.005615
 H         4.875909        -1.384601         1.522725
 H         4.802789         0.282739         0.231802
 H         3.399673         1.573643        -1.683939
 H         3.687272        -0.231646        -2.272676
 H         2.599155         0.954539         1.682707
