19
Iteration:  3880charge 0 multiplicity 1
 C        -0.068869         0.266532         0.107526
 C         1.435412        -0.159654        -0.021167
 C         1.931336        -1.674226         0.111993
 C         3.217529        -1.123528         0.582378
 O         4.218062        -1.860588         1.309687
 C         3.649360         0.126397        -0.068655
 C         3.240853         0.304159        -1.498631
 O         1.858786         0.516097        -1.336343
 C         2.582679         0.225095         0.923830
 H        -0.505564        -0.256266         0.963040
 H        -0.111173         1.325358         0.165455
 H        -0.685763        -0.151242        -0.657162
 H         1.391406        -2.217161         1.027317
 H         1.739506        -2.341337        -0.790827
 H         4.587145        -2.571160         0.764370
 H         4.638151         0.509982         0.292954
 H         3.915536         0.958113        -2.145659
 H         3.431380        -0.580958        -2.107266
 H         2.653942         1.016925         1.638084
