19
Iteration:   704
 C        -0.025556         0.143138         0.150155
 C         1.454197        -0.109225        -0.068721
 C         2.004547        -1.643174         0.069957
 C         3.219936        -1.048672         0.635120
 O         4.186602        -1.835072         1.316652
 C         3.769780         0.100621        -0.074275
 C         3.246892         0.194750        -1.457956
 O         1.788467         0.489795        -1.405444
 C         2.524053         0.381168         0.889257
 H        -0.213604        -0.736985         0.773137
 H        -0.303959         1.080356         0.687616
 H        -0.581190         0.036168        -0.854409
 H         1.442610        -2.216656         0.749168
 H         2.130986        -2.222268        -0.820680
 H         3.662519        -2.506114         1.781320
 H         4.821062         0.328044         0.202801
 H         3.555328         0.913106        -2.230010
 H         3.306150        -0.776718        -1.896059
 H         2.400924         1.164351         1.669098
