19
Iteration:  3875charge 0 multiplicity 1
 C        -0.024882         0.229182         0.112681
 C         1.441336        -0.149351        -0.019478
 C         1.898483        -1.669093         0.093117
 C         3.203662        -1.144908         0.644539
 O         4.179785        -1.846576         1.296276
 C         3.691681         0.151950        -0.070492
 C         3.256503         0.289077        -1.544931
 O         1.835919         0.530050        -1.301212
 C         2.584946         0.236103         0.877668
 H        -0.463273        -0.251753         1.105212
 H        -0.150659         1.355857         0.234288
 H        -0.541952        -0.316016        -0.745603
 H         1.402088        -2.187444         0.839879
 H         1.824464        -2.356400        -0.725980
 H         4.557589        -2.519376         0.693503
 H         4.601416         0.587025         0.367348
 H         3.918454         0.972247        -2.128724
 H         3.428627        -0.723602        -2.029862
 H         2.692566         0.947787         1.721786
