19
Iteration:  1501
 C        -0.000426         0.192137         0.103558
 C         1.436979        -0.139107         0.001335
 C         1.988577        -1.587484         0.118776
 C         3.223418        -1.063062         0.681620
 O         4.186378        -1.822262         1.345476
 C         3.769124         0.087161        -0.124587
 C         3.182221         0.208832        -1.562624
 O         1.785071         0.387546        -1.339038
 C         2.602603         0.316688         0.858276
 H        -0.594204         0.045440         1.016067
 H        -0.048126         1.226229        -0.298982
 H        -0.667004        -0.226884        -0.734064
 H         1.309758        -1.994734         0.914816
 H         1.911119        -2.190780        -0.831216
 H         3.794017        -2.618213         1.722158
 H         4.724337         0.534113         0.220039
 H         3.530978         1.245996        -1.993086
 H         3.302025        -0.567002        -2.314676
 H         2.912329         1.069818         1.649859
