19
Iteration:  1664
 C         0.027507         0.154708         0.239175
 C         1.448869        -0.144953        -0.143934
 C         1.956462        -1.551751         0.117886
 C         3.231377        -1.020533         0.745155
 O         4.115743        -1.891376         1.387783
 C         3.819295         0.130954        -0.162059
 C         3.189411         0.288731        -1.560111
 O         1.738549         0.359891        -1.424258
 C         2.686827         0.335650         0.835470
 H        -0.067361        -0.370232         1.161346
 H        -0.289483         1.191487         0.110213
 H        -0.716411        -0.330442        -0.492593
 H         1.413392        -2.159705         0.795534
 H         2.064011        -2.222570        -0.727528
 H         3.430949        -2.476822         1.791627
 H         4.852524         0.459492         0.160998
 H         3.641661         1.204470        -1.923391
 H         3.405555        -0.508371        -2.291431
 H         2.426261         1.155944         1.504197
