19
Iteration:  1081
 C         0.067134         0.154343         0.298704
 C         1.449666        -0.218637        -0.168559
 C         1.938620        -1.617979         0.064094
 C         3.227652        -1.149396         0.593861
 O         4.044245        -1.725850         1.536800
 C         3.775715         0.049593        -0.229906
 C         3.253498         0.535510        -1.526621
 O         1.780020         0.333227        -1.428757
 C         2.664490         0.225974         0.778222
 H        -0.367966        -0.402739         1.175444
 H        -0.123534         1.140495         0.727048
 H        -0.732792        -0.205064        -0.313824
 H         1.362891        -2.199367         0.832473
 H         2.171956        -2.202683        -0.859560
 H         3.749686        -2.627893         1.795793
 H         4.851427         0.194128         0.071753
 H         3.435953         1.624500        -1.670034
 H         3.566838        -0.055103        -2.397218
 H         2.520357         1.015656         1.552558
