19
Iteration:  3644charge 0 multiplicity 1
 C         0.114123         0.123945         0.508595
 C         1.467791        -0.185133        -0.163848
 C         2.020175        -1.678174        -0.178666
 C         3.272899        -1.161684         0.523308
 O         3.866045        -1.792173         1.689755
 C         3.794888         0.139726        -0.212605
 C         3.157790         0.503611        -1.562780
 O         1.801710         0.471345        -1.452619
 C         2.641251         0.144006         0.773091
 H         0.019081        -0.321532         1.505933
 H         0.195816         1.272310         0.614712
 H        -0.829213        -0.288853         0.020187
 H         1.541948        -2.433478         0.389061
 H         2.060248        -2.112549        -1.205305
 H         4.100828        -2.723561         1.558322
 H         4.780637         0.675116         0.104158
 H         3.587605         1.556837        -1.829477
 H         3.641313        -0.230154        -2.416095
 H         2.722925         0.857685         1.585915
