19
Iteration:  2381charge 0 multiplicity 1
 C         0.000351         0.101587         0.216315
 C         1.514342        -0.162524        -0.048968
 C         1.995725        -1.670916         0.002037
 C         3.212415        -1.100222         0.588098
 O         4.112709        -1.725305         1.436496
 C         3.772382         0.050132        -0.187179
 C         3.170279         0.202538        -1.548006
 O         1.770196         0.557691        -1.288883
 C         2.679267         0.352710         0.858194
 H        -0.616988        -0.246519         1.130533
 H        -0.137425         1.234083         0.044915
 H        -0.671217        -0.279059        -0.686665
 H         1.344906        -2.217408         0.656057
 H         1.887907        -2.184131        -1.052370
 H         3.749573        -2.620497         1.565046
 H         4.945724         0.103488         0.028641
 H         3.647723         1.097378        -1.965759
 H         3.172786        -0.735734        -2.095321
 H         2.562490         1.014628         1.818843
