19
Iteration:  1799charge 0 multiplicity 1
 C         0.087389         0.013234         0.235995
 C         1.488709        -0.040250        -0.113299
 C         1.965962        -1.556006        -0.030111
 C         3.159335        -1.012899         0.665812
 O         4.128968        -1.847046         1.388773
 C         3.726514         0.117604        -0.105682
 C         3.193284         0.058562        -1.493656
 O         1.811774         0.523176        -1.340493
 C         2.611399         0.437576         0.807319
 H         0.014805        -0.520096         1.291091
 H        -0.291657         1.126797         0.393973
 H        -0.720887        -0.464397        -0.376281
 H         1.266224        -2.174725         0.512866
 H         2.165521        -2.032418        -1.001197
 H         3.657141        -2.591263         1.792732
 H         4.810032         0.371795        -0.058661
 H         3.621463         0.796320        -2.229576
 H         3.260684        -0.879665        -2.056696
 H         2.520697         1.100502         1.728984
