19
Iteration:   318charge 0 multiplicity 1
 C         0.036958         0.250828         0.275787
 C         1.477071        -0.224794        -0.164254
 C         1.970980        -1.658406        -0.039238
 C         3.279289        -1.082157         0.618250
 O         4.007590        -1.827960         1.558754
 C         3.724676         0.100196        -0.079366
 C         3.224590         0.449095        -1.478325
 O         1.737069         0.343004        -1.528434
 C         2.640805         0.155939         0.825837
 H        -0.077293         0.013354         1.341259
 H        -0.069737         1.363613         0.126692
 H        -0.794383        -0.262850        -0.265562
 H         1.449198        -2.111102         0.745715
 H         2.096009        -2.218957        -0.961493
 H         4.958501        -1.704430         1.524666
 H         4.548484         0.671206         0.239944
 H         3.605900         1.388003        -1.767852
 H         3.634335        -0.273395        -2.280471
 H         2.614390         0.747555         1.671013
