19
Iteration:  2659charge 0 multiplicity 1
 C        -0.024668         0.217554         0.237077
 C         1.398173        -0.191630        -0.038499
 C         1.961275        -1.599813         0.055523
 C         3.282851        -1.028002         0.629657
 O         4.173156        -1.869879         1.356201
 C         3.764181         0.069905        -0.132512
 C         3.237239         0.330415        -1.527225
 O         1.786364         0.300672        -1.433261
 C         2.580024         0.333441         0.845813
 H        -0.379432        -0.216984         1.184044
 H        -0.183403         1.324379         0.322755
 H        -0.716389        -0.110688        -0.623716
 H         1.451391        -2.113476         0.846158
 H         1.920183        -2.193569        -0.833575
 H         3.831682        -2.184182         2.212781
 H         4.758959         0.521499         0.080168
 H         3.513498         1.365930        -1.694304
 H         3.607341        -0.413186        -2.228053
 H         2.601530         1.288446         1.487745
