19
Iteration:   342
 C         0.097118         0.214347         0.404593
 C         1.433261        -0.202646        -0.157030
 C         1.971795        -1.775808        -0.125262
 C         3.129776        -1.059251         0.592203
 O         3.981707        -1.785512         1.623026
 C         3.712906         0.114973        -0.100163
 C         3.270456         0.526987        -1.580319
 O         1.889825         0.215480        -1.420960
 C         2.544898         0.336643         0.726368
 H        -0.065066        -0.373056         1.317133
 H         0.249740         1.272540         0.665390
 H        -0.705736         0.111507        -0.187877
 H         1.513550        -2.514875         0.637105
 H         2.219158        -2.214138        -1.137223
 H         4.782229        -2.102248         1.180664
 H         4.753156         0.351336         0.186534
 H         3.479392         1.544771        -1.793115
 H         3.637488         0.009447        -2.520177
 H         2.401236         0.917407         1.662277
