19
Iteration:  2244
 C        -0.006781         0.151067         0.033594
 C         1.482512        -0.057360        -0.023559
 C         1.884911        -1.636746         0.128281
 C         3.216072        -1.048040         0.636074
 O         4.165160        -1.900224         1.325103
 C         3.735462         0.179062        -0.071152
 C         3.169359         0.262533        -1.569602
 O         1.752354         0.433163        -1.343047
 C         2.713733         0.299727         0.992165
 H        -0.391690        -0.223688         1.018547
 H        -0.371331         1.191415        -0.242034
 H        -0.363400        -0.621454        -0.684108
 H         1.329422        -1.934651         1.059850
 H         1.873326        -2.310982        -0.675506
 H         4.385162        -2.527200         0.616162
 H         4.869939         0.353722         0.245566
 H         3.534887         1.190842        -2.135889
 H         3.420998        -0.709444        -1.942169
 H         2.830185         1.019253         1.888307
