19
Iteration:  2904charge 0 multiplicity 1
 C         0.056805         0.183877         0.376746
 C         1.431043        -0.199384        -0.155910
 C         1.939072        -1.754011        -0.085609
 C         3.285046        -1.119545         0.514239
 O         4.046222        -1.768765         1.556206
 C         3.849213         0.054545        -0.168329
 C         3.197711         0.427401        -1.518890
 O         1.765914         0.433094        -1.340146
 C         2.680278         0.249094         0.714885
 H        -0.144220        -0.270505         1.414031
 H        -0.165546         1.336956         0.356016
 H        -0.746567        -0.311352        -0.305253
 H         1.539063        -2.367814         0.732090
 H         1.874513        -2.158669        -1.024864
 H         3.322698        -1.965174         2.170092
 H         4.775976         0.299478         0.182064
 H         3.471718         1.400665        -1.762709
 H         3.462556        -0.038974        -2.469466
 H         2.493673         1.090931         1.488684
