19
Iteration:  4659
 C         0.013281         0.226016         0.150683
 C         1.452751        -0.104456         0.010608
 C         1.912661        -1.647470         0.034091
 C         3.248681        -1.094601         0.658671
 O         4.066806        -1.996937         1.381743
 C         3.782656         0.200027        -0.172609
 C         3.207070         0.281035        -1.609192
 O         1.798434         0.405497        -1.331331
 C         2.679841         0.317099         0.910607
 H        -0.524745        -0.336817         0.882943
 H        -0.187425         1.305908         0.244763
 H        -0.708259         0.049556        -0.791844
 H         1.364868        -2.242134         0.841147
 H         1.950527        -2.207513        -0.878299
 H         4.420527        -1.489081         2.154175
 H         4.840696         0.282080        -0.019544
 H         3.384917         1.197046        -2.072354
 H         3.542945        -0.603322        -2.253133
 H         2.651667         1.119816         1.659147
