19
Iteration:   254
 C        -0.013120         0.043779         0.089134
 C         1.429401        -0.011405        -0.057930
 C         1.938945        -1.494916         0.077078
 C         3.263636        -1.072780         0.680875
 O         4.105561        -2.029436         1.367183
 C         3.709272         0.199649        -0.051769
 C         3.210054         0.252635        -1.546249
 O         1.824856         0.462371        -1.410368
 C         2.632745         0.360555         0.933558
 H        -0.292390        -0.421036         0.992823
 H        -0.493593         0.999674        -0.096878
 H        -0.262328        -0.625935        -0.590610
 H         1.357402        -2.114526         0.851986
 H         1.731620        -2.323656        -0.687233
 H         5.010118        -1.693821         1.451343
 H         4.724040         0.420606         0.185563
 H         3.671272         0.937527        -2.211903
 H         3.319613        -0.740230        -1.999481
 H         2.436903         1.060019         1.666937
