19
Iteration:  3918charge 0 multiplicity 1
 C         0.097722         0.289979         0.200156
 C         1.485282        -0.165378        -0.033860
 C         1.890494        -1.693755         0.020094
 C         3.226994        -1.169933         0.602802
 O         4.083311        -1.872506         1.457154
 C         3.709238         0.129115        -0.186507
 C         3.157260         0.541630        -1.492430
 O         1.797079         0.257010        -1.393632
 C         2.652020         0.255622         0.905795
 H        -0.390231        -0.078058         1.140712
 H         0.067162         1.379900         0.439794
 H        -0.430539         0.029075        -0.747729
 H         1.359452        -2.345177         0.686031
 H         1.886928        -2.119839        -1.022088
 H         4.556895        -2.456590         0.823038
 H         4.754113         0.368134         0.155758
 H         3.290071         1.599162        -1.646632
 H         3.630258        -0.121276        -2.301627
 H         2.699755         1.087319         1.636125
