19
Iteration:  3860
 C         0.042492         0.110850         0.196560
 C         1.499273        -0.090671        -0.113392
 C         1.894314        -1.599090         0.002384
 C         3.177551        -1.043584         0.645201
 O         4.108574        -1.900913         1.382691
 C         3.801551         0.119948        -0.108252
 C         3.199899         0.249247        -1.479192
 O         1.791715         0.512551        -1.310413
 C         2.633585         0.284503         0.922542
 H        -0.280993        -0.300462         1.058973
 H        -0.160705         1.149841         0.031271
 H        -0.576089        -0.369489        -0.553111
 H         1.158605        -2.101796         0.711444
 H         1.973065        -2.148040        -0.998868
 H         4.609146        -2.312693         0.654412
 H         4.833663         0.350896         0.047559
 H         3.424653         1.064956        -2.137316
 H         3.349145        -0.591427        -2.208313
 H         2.424146         0.855314         1.824950
