19
Iteration:  4875
 C         0.083602         0.203614         0.507948
 C         1.484331        -0.057613        -0.114797
 C         1.919975        -1.712375        -0.040958
 C         3.216655        -1.184880         0.557654
 O         3.915408        -1.720317         1.601443
 C         3.848655         0.025175        -0.214197
 C         3.211754         0.418847        -1.655325
 O         1.817741         0.360281        -1.516640
 C         2.725766         0.257415         0.805244
 H         0.036609        -0.048348         1.520702
 H        -0.250022         1.230242         0.303893
 H        -0.688241        -0.538921         0.062245
 H         1.358318        -2.219482         0.764564
 H         1.828112        -2.199828        -1.138988
 H         3.304823        -2.391346         1.932211
 H         4.898325         0.154428         0.109002
 H         3.613901         1.421998        -1.951423
 H         3.524469        -0.240339        -2.400606
 H         2.896853         0.944493         1.655470
