19
Iteration:  4966charge 0 multiplicity 1
 C         0.000229         0.378511         0.157834
 C         1.502389        -0.154931        -0.039457
 C         1.830358        -1.663339         0.258084
 C         3.145650        -1.120081         0.702070
 O         4.195426        -1.843904         1.321930
 C         3.715852         0.005920        -0.184343
 C         3.240031         0.406402        -1.536937
 O         1.823081         0.256627        -1.502830
 C         2.652692         0.347528         0.846188
 H        -0.412012        -0.278205         0.914963
 H         0.162561         1.412001         0.249101
 H        -0.402980         0.129883        -0.770139
 H         1.292115        -2.043422         1.153608
 H         1.739979        -2.446659        -0.644815
 H         3.951793        -2.418199         2.085931
 H         4.642664         0.417374         0.113002
 H         3.427525         1.437757        -1.812930
 H         3.585521        -0.239077        -2.293902
 H         2.814964         0.771553         1.815450
