19
Iteration:  4304charge 0 multiplicity 1
 C         0.003531         0.151620         0.138844
 C         1.517838        -0.084930        -0.026378
 C         1.925501        -1.515823         0.044713
 C         3.243929        -1.046806         0.690419
 O         4.057957        -2.057639         1.328586
 C         3.758273         0.083970        -0.158386
 C         3.213941         0.233275        -1.552004
 O         1.751873         0.471441        -1.318524
 C         2.635755         0.386963         0.922586
 H        -0.278878        -0.264478         1.094428
 H        -0.207432         1.062268        -0.279077
 H        -0.454528        -0.527646        -0.531506
 H         1.252087        -1.947463         0.779977
 H         1.956637        -2.269281        -0.801659
 H         4.880916        -1.623233         1.607208
 H         4.777857         0.488437         0.190975
 H         3.753615         1.162620        -1.979406
 H         3.302549        -0.708394        -2.111713
 H         2.610650         1.254653         1.521501
