19
Iteration:  2445charge 0 multiplicity 1
 C         0.013426         0.282379         0.265251
 C         1.466254        -0.168544        -0.069259
 C         1.898414        -1.692148         0.123635
 C         3.206666        -1.027783         0.655142
 O         4.086040        -1.845226         1.216834
 C         3.714111         0.145195        -0.138127
 C         3.286033         0.452215        -1.475896
 O         1.853619         0.153467        -1.397804
 C         2.615015         0.257014         0.846682
 H        -0.037995         0.051014         1.341382
 H        -0.283213         1.270018        -0.093044
 H        -0.615148        -0.350469        -0.458601
 H         1.220920        -2.214009         0.776003
 H         1.944873        -2.328357        -0.766219
 H         4.053586        -1.876217         2.177174
 H         4.786554         0.548601         0.121374
 H         3.406348         1.645227        -1.619779
 H         3.772756         0.017774        -2.404755
 H         2.461882         1.062146         1.690287
