19
Iteration:  3697charge 0 multiplicity 1
 C        -0.070602         0.187848         0.150594
 C         1.454102        -0.058613        -0.065020
 C         1.891735        -1.582959         0.041410
 C         3.214931        -1.150018         0.655395
 O         4.193115        -1.942431         1.364612
 C         3.759999         0.055108        -0.139093
 C         3.265499         0.422988        -1.528443
 O         1.778563         0.370895        -1.322378
 C         2.588331         0.271032         0.946701
 H        -0.340819        -0.012616         1.199445
 H        -0.215417         1.246778        -0.296229
 H        -0.837033        -0.345539        -0.559761
 H         1.247985        -2.059650         0.717161
 H         1.956226        -2.089207        -0.888582
 H         4.968287        -2.067930         0.795683
 H         4.816913         0.400624         0.228181
 H         3.555146         1.416851        -1.817059
 H         3.681376        -0.160339        -2.296874
 H         2.512676         0.815107         1.877212
