19
Iteration:  4954charge 0 multiplicity 1
 C         0.011858         0.319361         0.087893
 C         1.420324        -0.070140         0.011468
 C         1.824295        -1.626504         0.220264
 C         3.239227        -1.137955         0.585439
 O         4.219331        -1.847920         1.318743
 C         3.720174         0.072064        -0.154185
 C         3.267218         0.299790        -1.568707
 O         1.804115         0.288452        -1.365992
 C         2.663872         0.284469         0.893001
 H        -0.576839        -0.132072         0.851782
 H        -0.244626         1.333063         0.297840
 H        -0.475779         0.101502        -0.857762
 H         1.254007        -2.041614         1.056968
 H         1.659849        -2.249074        -0.743341
 H         3.722254        -2.049618         2.120938
 H         4.779378         0.183634         0.087606
 H         3.698922         1.231092        -1.956389
 H         3.542264        -0.477826        -2.228318
 H         2.652111         1.104665         1.587856
