19
Iteration:  3298charge 0 multiplicity 1
 C        -0.004693         0.145077         0.143693
 C         1.472159        -0.183073        -0.047912
 C         1.964779        -1.638546         0.008496
 C         3.299847        -1.084430         0.686272
 O         4.086422        -1.920139         1.397848
 C         3.706037         0.153780        -0.100987
 C         3.189416         0.319806        -1.516293
 O         1.792626         0.488163        -1.323021
 C         2.604552         0.344986         0.882670
 H        -0.354594        -0.351526         1.016034
 H        -0.134719         1.267062         0.109431
 H        -0.593242        -0.359312        -0.568834
 H         1.294003        -2.362923         0.598149
 H         2.153536        -2.122778        -0.934041
 H         4.679929        -2.433725         0.820946
 H         4.652041         0.503356         0.060895
 H         3.557841         1.130764        -2.055782
 H         3.572237        -0.514156        -2.106723
 H         2.462180         1.218081         1.568556
