19
Iteration:  1191
 C        -0.051756         0.079434         0.001507
 C         1.470397        -0.036132        -0.021039
 C         1.911855        -1.565145         0.166598
 C         3.229858        -1.124889         0.645078
 O         4.250606        -1.810952         1.296272
 C         3.732448         0.060025        -0.105314
 C         3.153840         0.248166        -1.480110
 O         1.793786         0.512761        -1.355615
 C         2.652087         0.298897         0.942098
 H        -0.380051        -0.421604         0.916964
 H        -0.345673         1.195170        -0.032134
 H        -0.394741        -0.447085        -0.897076
 H         1.272662        -2.140668         0.942851
 H         2.051052        -2.197046        -0.827988
 H         3.868108        -2.528895         1.809375
 H         4.721415         0.237935         0.211388
 H         3.701855         0.972941        -2.184857
 H         3.038217        -0.721478        -2.083763
 H         2.721021         1.060719         1.676844
