19
Iteration:  1206
 C        -0.049244         0.123537         0.096414
 C         1.412217        -0.173195        -0.021429
 C         1.951969        -1.586589         0.045782
 C         3.287838        -1.048378         0.685586
 O         4.193993        -1.830047         1.378695
 C         3.849355         0.018914        -0.192768
 C         3.207566         0.262836        -1.574502
 O         1.768231         0.475962        -1.276435
 C         2.576159         0.315999         0.881693
 H        -0.620128        -0.415220         0.814894
 H        -0.292973         1.166576         0.211292
 H        -0.538396         0.087904        -0.899477
 H         1.443125        -2.042807         0.859930
 H         1.774437        -2.211700        -0.771714
 H         3.671582        -2.429417         1.953956
 H         4.830010         0.534769         0.070322
 H         3.501970         1.182413        -1.960251
 H         3.506142        -0.508250        -2.281786
 H         2.648311         1.095773         1.686612
