19
Iteration:  2186
 C         0.245388         0.142892         0.348512
 C         1.528759        -0.207832        -0.187288
 C         1.959185        -1.715374        -0.140779
 C         3.206003        -1.181444         0.640941
 O         3.940321        -1.716835         1.651547
 C         3.747806         0.109317        -0.173093
 C         3.152431         0.424015        -1.572854
 O         1.716742         0.453293        -1.407300
 C         2.659952         0.233932         0.787697
 H         0.109854        -0.252533         1.349663
 H         0.340928         1.217521         0.607272
 H        -0.677310         0.051911        -0.132908
 H         1.169170        -2.230386         0.380143
 H         2.137215        -2.251893        -1.084250
 H         4.538643        -2.380024         1.232288
 H         4.691824         0.274483         0.226932
 H         3.389562         1.431468        -1.825143
 H         3.449055        -0.144765        -2.472715
 H         2.477235         0.589417         1.742121
