19
Iteration:  2342charge 0 multiplicity 1
 C         0.089079         0.089999         0.491502
 C         1.465368        -0.139435        -0.149319
 C         2.027020        -1.623066        -0.095382
 C         3.264629        -1.098348         0.676507
 O         3.920891        -1.822651         1.680634
 C         3.760092         0.066779        -0.226982
 C         3.202697         0.399462        -1.645470
 O         1.736794         0.457204        -1.516910
 C         2.674041         0.275561         0.754697
 H        -0.089857        -0.494053         1.391609
 H         0.116937         1.147438         0.737032
 H        -0.673402        -0.166422        -0.207265
 H         1.598021        -2.193652         0.784368
 H         2.204946        -2.105446        -1.036964
 H         4.168027        -2.683638         1.280762
 H         4.862319         0.360564        -0.099988
 H         3.591695         1.435347        -1.897927
 H         3.457165        -0.312291        -2.492715
 H         2.578242         0.963455         1.622251
