19
Iteration:  3357charge 0 multiplicity 1
 C         0.053741         0.286365         0.235335
 C         1.434058        -0.235518        -0.107142
 C         1.873241        -1.738486         0.095128
 C         3.242721        -1.157901         0.551463
 O         4.053771        -1.836920         1.479493
 C         3.750971         0.124106        -0.157918
 C         3.290933         0.639352        -1.500437
 O         1.800066         0.274596        -1.417260
 C         2.613327         0.168130         0.801466
 H        -0.070765         0.385790         1.344212
 H        -0.177738         1.268116        -0.083660
 H        -0.667061        -0.384634        -0.302936
 H         1.329302        -2.103845         1.014983
 H         1.883820        -2.475893        -0.836258
 H         4.881292        -2.037223         0.993230
 H         4.752351         0.646445         0.184473
 H         3.176369         1.750441        -1.494105
 H         3.758516         0.092660        -2.269597
 H         2.502850         0.563051         1.803136
