19
Iteration:  2619charge 0 multiplicity 1
 C         0.090485         0.333363         0.312323
 C         1.430503        -0.223331        -0.132970
 C         1.898089        -1.748486         0.077678
 C         3.257353        -1.097559         0.578624
 O         4.113391        -1.715855         1.426227
 C         3.774539         0.119369        -0.157610
 C         3.258752         0.512444        -1.474816
 O         1.791283         0.152899        -1.472056
 C         2.554732         0.232185         0.819802
 H        -0.172871         0.107124         1.334778
 H         0.361730         1.346243         0.260524
 H        -0.777132        -0.063878        -0.269937
 H         1.430481        -2.194376         1.069888
 H         1.845373        -2.350079        -0.852669
 H         3.620205        -2.538849         1.611865
 H         4.768241         0.402252         0.120866
 H         3.184206         1.636151        -1.602303
 H         3.673113        -0.006169        -2.418289
 H         2.563544         0.876812         1.561248
