19
Iteration:  3606charge 0 multiplicity 1
 C         0.024930        -0.031454         0.281761
 C         1.495471        -0.098793        -0.089529
 C         1.991816        -1.586449        -0.094766
 C         3.238197        -1.111832         0.679656
 O         3.945052        -1.825289         1.564833
 C         3.768688         0.034161        -0.236576
 C         3.151892         0.317770        -1.561666
 O         1.825876         0.591602        -1.338704
 C         2.707130         0.310747         0.851210
 H        -0.134037        -0.862077         1.078346
 H        -0.135062         0.949443         0.702330
 H        -0.716463        -0.012733        -0.521917
 H         1.311167        -2.292479         0.476144
 H         2.242871        -1.984360        -1.065640
 H         4.411449        -2.470063         0.998176
 H         4.738737         0.326308        -0.051304
 H         3.549432         1.139589        -2.127440
 H         3.277597        -0.430174        -2.279721
 H         2.719678         1.126516         1.589224
