19
Iteration:  3869
 C         0.023413         0.165927         0.144900
 C         1.443741        -0.123561        -0.048936
 C         1.868522        -1.648438         0.053971
 C         3.208564        -1.132583         0.686216
 O         4.141830        -1.850287         1.309813
 C         3.754403         0.155419        -0.098352
 C         3.270124         0.243353        -1.548082
 O         1.808869         0.537094        -1.287053
 C         2.591466         0.259903         0.874204
 H        -0.330172        -0.167776         1.109345
 H        -0.217814         1.206643         0.133363
 H        -0.410302        -0.247335        -0.731601
 H         1.227655        -2.170755         0.900718
 H         1.991106        -2.322042        -0.866431
 H         4.511352        -2.410748         0.604258
 H         4.700043         0.587454         0.356140
 H         3.615305         1.181642        -2.091488
 H         3.339916        -0.742939        -1.964546
 H         2.581134         0.814617         1.790227
