19
Iteration:  2739
 C        -0.010099         0.169153         0.381774
 C         1.455342        -0.148327        -0.110227
 C         2.020760        -1.650121        -0.013127
 C         3.257872        -1.108143         0.608230
 O         4.058861        -1.797982         1.444570
 C         3.770529         0.113397        -0.177580
 C         3.237434         0.343173        -1.577175
 O         1.793620         0.360332        -1.448349
 C         2.605243         0.315214         0.849858
 H        -0.238174        -0.145340         1.431522
 H        -0.080379         1.256689         0.305242
 H        -0.800448        -0.443506        -0.177024
 H         1.369469        -2.226394         0.693480
 H         2.151151        -2.123427        -0.973469
 H         3.486929        -2.254335         2.095556
 H         4.777720         0.531519         0.093596
 H         3.569064         1.255294        -2.046778
 H         3.647789        -0.406950        -2.291799
 H         2.576812         0.898455         1.748363
