19
Iteration:  3125charge 0 multiplicity 1
 C        -0.016181         0.217336         0.134481
 C         1.453688        -0.200614        -0.029756
 C         1.986048        -1.707446         0.096072
 C         3.193821        -1.100374         0.616359
 O         4.069439        -1.886682         1.319161
 C         3.755951         0.156560        -0.108602
 C         3.239130         0.336554        -1.536591
 O         1.779819         0.501206        -1.345246
 C         2.621289         0.224143         0.908821
 H        -0.447783        -0.242215         1.019128
 H        -0.245480         1.347203         0.185303
 H        -0.400492        -0.240514        -0.751638
 H         1.424095        -2.276368         0.858692
 H         2.085492        -2.313377        -0.802090
 H         4.934912        -1.456043         1.370548
 H         4.854217         0.357583         0.187466
 H         3.475641         1.301958        -1.994448
 H         3.435168        -0.634921        -2.014384
 H         2.626663         0.959687         1.755805
