19
Iteration:  2336
 C         0.159251         0.145334         0.493224
 C         1.455227        -0.202545        -0.107986
 C         2.029624        -1.675033        -0.067312
 C         3.233835        -1.090220         0.641897
 O         3.874657        -1.825631         1.655519
 C         3.811835         0.102861        -0.253007
 C         3.207023         0.411187        -1.585669
 O         1.740577         0.441137        -1.503651
 C         2.651242         0.324225         0.693591
 H        -0.039059        -0.519345         1.357829
 H         0.006909         1.197526         0.797214
 H        -0.705420        -0.236901        -0.233434
 H         1.510593        -2.306314         0.646124
 H         2.339246        -2.238473        -0.992626
 H         4.332108        -2.593308         1.233889
 H         4.801532         0.346316        -0.036344
 H         3.425284         1.459441        -1.849893
 H         3.474062        -0.332480        -2.310634
 H         2.566834         0.942663         1.547770
