19
Iteration:  3122
 C         0.007608         0.221893         0.169056
 C         1.453306        -0.203461        -0.056274
 C         1.990940        -1.694266         0.079098
 C         3.180841        -1.078636         0.634163
 O         4.057692        -1.898122         1.327737
 C         3.754076         0.164314        -0.129590
 C         3.235267         0.337430        -1.548448
 O         1.790190         0.485085        -1.340439
 C         2.606454         0.219901         0.937521
 H        -0.377728        -0.293322         1.059141
 H        -0.300026         1.259994         0.186511
 H        -0.415757        -0.169737        -0.792040
 H         1.402836        -2.353201         0.887957
 H         2.112287        -2.246894        -0.910824
 H         4.893782        -1.413560         1.411639
 H         4.879912         0.417292         0.158266
 H         3.512879         1.319742        -2.158885
 H         3.491337        -0.654981        -2.027428
 H         2.627360         0.886419         1.731106
