19
Iteration:   968
 C         0.011072         0.193833         0.347205
 C         1.450090        -0.213394        -0.124067
 C         1.957700        -1.638495        -0.017936
 C         3.254433        -1.151500         0.574580
 O         4.047102        -1.804177         1.554798
 C         3.818154         0.111760        -0.257057
 C         3.185582         0.638440        -1.538142
 O         1.814029         0.214125        -1.432925
 C         2.636021         0.221482         0.778967
 H        -0.050136         0.347881         1.379060
 H         0.102872         1.154770        -0.041717
 H        -0.694831        -0.518959        -0.071029
 H         1.380284        -2.072022         0.869067
 H         1.982487        -2.447486        -0.857747
 H         3.349571        -2.239541         2.100668
 H         4.832943         0.218158         0.062156
 H         3.348593         1.730950        -1.383782
 H         3.660927         0.157102        -2.396841
 H         2.696244         0.907662         1.586170
