19
Iteration:  4371charge 0 multiplicity 1
 C         0.101822         0.257017         0.354603
 C         1.509856        -0.151138        -0.087223
 C         2.052697        -1.662974        -0.075291
 C         3.189972        -1.130475         0.736790
 O         3.958101        -1.921140         1.550177
 C         3.747942         0.013568        -0.181837
 C         3.199234         0.456231        -1.582564
 O         1.693261         0.361976        -1.517188
 C         2.677767         0.312204         0.828261
 H        -0.247489        -0.301167         1.281595
 H         0.156570         1.347596         0.490173
 H        -0.563344         0.113600        -0.471496
 H         1.362377        -2.400385         0.459718
 H         2.195674        -2.258628        -1.034115
 H         4.835604        -1.574431         1.768731
 H         4.795946         0.194058        -0.082642
 H         3.382819         1.619075        -1.794572
 H         3.508640        -0.193054        -2.412154
 H         2.531013         1.008172         1.720603
