19
Iteration:  4069charge 0 multiplicity 1
 C         0.049761         0.312003         0.283967
 C         1.447261        -0.103377        -0.088620
 C         1.845218        -1.616279         0.086261
 C         3.199510        -1.159852         0.668408
 O         4.106407        -1.867084         1.431665
 C         3.715671         0.128128        -0.165659
 C         3.271296         0.543768        -1.492867
 O         1.828117         0.159153        -1.501417
 C         2.628539         0.195223         0.881294
 H        -0.174663        -0.355900         1.049453
 H        -0.087396         1.416955         0.392850
 H        -0.760896         0.049736        -0.442458
 H         1.296503        -2.261019         0.856001
 H         1.887433        -2.247005        -0.877581
 H         4.669431        -2.344153         0.776114
 H         4.781559         0.457279         0.177113
 H         3.196829         1.726124        -1.714355
 H         3.740501         0.093438        -2.414078
 H         2.751135         0.935872         1.608187
