19
Iteration:   403charge 0 multiplicity 1
 C        -0.050497         0.041122         0.062373
 C         1.509379        -0.147211        -0.063088
 C         1.978853        -1.660730         0.035184
 C         3.240716        -1.096435         0.679641
 O         4.097401        -1.755306         1.494320
 C         3.805961         0.105501        -0.184796
 C         3.152608         0.265243        -1.547330
 O         1.775422         0.566855        -1.285752
 C         2.646651         0.285230         0.883846
 H        -0.642132        -0.192956         0.962294
 H        -0.247401         1.131049        -0.159240
 H        -0.441430        -0.458177        -0.933893
 H         1.686033        -2.304171         0.871002
 H         2.100329        -2.321412        -0.827659
 H         4.047271        -2.676137         1.189904
 H         4.768691         0.309294         0.208733
 H         3.593286         1.228715        -1.980323
 H         3.141877        -0.561699        -2.220790
 H         2.766940         1.111120         1.541042
