19
Iteration:  4369
 C         0.117604         0.248544         0.329850
 C         1.511150        -0.159010        -0.089459
 C         2.035577        -1.660926        -0.067628
 C         3.180523        -1.130922         0.722495
 O         3.971972        -1.921845         1.550119
 C         3.736566         0.016423        -0.176755
 C         3.189107         0.438976        -1.585974
 O         1.694206         0.373504        -1.501269
 C         2.682157         0.315115         0.834007
 H        -0.294450        -0.265103         1.324351
 H         0.115549         1.407363         0.582834
 H        -0.568671         0.084375        -0.508592
 H         1.365691        -2.347778         0.388027
 H         2.269031        -2.219208        -1.014618
 H         4.846113        -1.508034         1.752392
 H         4.857050         0.192453        -0.010647
 H         3.441930         1.536654        -1.807600
 H         3.477066        -0.175477        -2.406297
 H         2.530352         0.990386         1.686461
