19
Iteration:  2670
 C        -0.149353         0.153389         0.195685
 C         1.422691        -0.148536        -0.073721
 C         1.966292        -1.603208         0.081511
 C         3.284956        -1.115151         0.622701
 O         4.173735        -1.843602         1.356375
 C         3.764294         0.090278        -0.161349
 C         3.208037         0.272048        -1.499860
 O         1.812491         0.408207        -1.335509
 C         2.683328         0.360101         0.788319
 H        -0.583622        -0.219095         1.134974
 H        -0.037981         1.253958         0.192591
 H        -0.807341        -0.310743        -0.658400
 H         1.560079        -2.142142         0.900700
 H         2.025425        -2.197370        -0.794650
 H         3.611665        -1.900211         2.166018
 H         4.738584         0.461867         0.204693
 H         3.672606         1.123298        -2.057384
 H         3.347946        -0.507508        -2.242671
 H         2.678448         1.047125         1.742521
