19
Iteration:  1997
 C         0.221308         0.096063         0.465162
 C         1.530158        -0.213478        -0.153880
 C         1.940205        -1.644387        -0.082485
 C         3.192878        -1.103231         0.589933
 O         3.823160        -1.730507         1.608260
 C         3.788707         0.102622        -0.212866
 C         3.206243         0.387498        -1.614161
 O         1.760633         0.352942        -1.396891
 C         2.695675         0.357173         0.783789
 H         0.078961        -0.308020         1.501162
 H         0.012166         1.166644         0.582227
 H        -0.424327        -0.462761        -0.272249
 H         1.295878        -2.124217         0.652926
 H         2.023768        -2.176162        -1.061478
 H         4.434601        -2.446623         1.319299
 H         4.881578         0.146955        -0.198439
 H         3.350375         1.455034        -1.929468
 H         3.472685        -0.355117        -2.437837
 H         2.762087         1.113176         1.526933
