19
Iteration:    37charge 0 multiplicity 1
 C         0.094955         0.157702         0.483547
 C         1.502718        -0.263259        -0.073386
 C         1.936580        -1.722947        -0.039835
 C         3.214930        -1.163484         0.558474
 O         3.878425        -1.810360         1.619738
 C         3.776295         0.167146        -0.140404
 C         3.293987         0.565762        -1.547735
 O         1.825182         0.244925        -1.551264
 C         2.621116         0.354332         0.683641
 H        -0.263531        -0.345781         1.436577
 H         0.056184         1.377333         0.485230
 H        -0.665792         0.019931        -0.301083
 H         1.380445        -2.466910         0.476345
 H         1.953190        -2.182225        -0.952065
 H         4.748104        -2.178978         1.440997
 H         4.808823         0.466160         0.243834
 H         3.375246         1.707576        -1.678227
 H         3.703323        -0.087029        -2.318761
 H         2.493757         1.334540         1.345231
