19
Iteration:  1874
 C         0.108084         0.327529         0.277285
 C         1.457767        -0.266040        -0.088596
 C         1.910519        -1.673388         0.148395
 C         3.202084        -1.058269         0.617818
 O         4.063709        -1.907615         1.366092
 C         3.703160         0.068232        -0.182489
 C         3.159454         0.629270        -1.515772
 O         1.887825         0.119523        -1.495251
 C         2.630534         0.305904         0.840483
 H        -0.191462        -0.114869         1.298732
 H         0.152262         1.486700         0.105608
 H        -0.726142         0.010179        -0.427557
 H         1.464900        -2.344518         0.956389
 H         2.000456        -2.272914        -0.831221
 H         4.017532        -1.618791         2.300390
 H         4.743490         0.344663         0.125067
 H         3.187089         1.725168        -1.546121
 H         3.626701         0.156144        -2.478558
 H         2.584636         0.971304         1.753068
