19
Iteration:    16
 C         0.147649         0.160269         0.336717
 C         1.461120        -0.145091        -0.201607
 C         1.991891        -1.614239        -0.006182
 C         3.223181        -1.045266         0.586101
 O         3.898898        -1.836681         1.596714
 C         3.791323         0.120505        -0.183078
 C         3.237810         0.477722        -1.537290
 O         1.817979         0.260247        -1.516235
 C         2.568213         0.233716         0.851066
 H         0.211263        -0.497859         1.259934
 H        -0.115886         1.263141         0.651716
 H        -0.810149        -0.157612        -0.106109
 H         1.423357        -2.070724         0.764839
 H         1.959014        -2.394641        -0.686917
 H         4.696168        -2.173825         1.148218
 H         4.717876         0.700160         0.051638
 H         3.430945         1.590728        -1.786411
 H         3.599467        -0.242498        -2.271864
 H         2.498170         0.701711         1.898741
