19
Iteration:  2021
 C         0.053491         0.246825         0.544716
 C         1.423749        -0.149927        -0.188271
 C         1.941300        -1.625877        -0.036998
 C         3.287619        -1.146774         0.595049
 O         3.947651        -1.789799         1.634273
 C         3.800598         0.046121        -0.206513
 C         3.202097         0.447950        -1.604379
 O         1.798213         0.281212        -1.572415
 C         2.668565         0.221331         0.765910
 H        -0.042566        -0.208745         1.510970
 H        -0.090233         1.283266         0.759597
 H        -0.764755        -0.182310        -0.115521
 H         1.360550        -2.161858         0.645808
 H         2.023887        -2.121648        -0.964463
 H         4.848117        -2.066487         1.441911
 H         4.822743         0.482276         0.099794
 H         3.449341         1.579856        -1.701718
 H         3.635472        -0.151809        -2.399057
 H         2.429074         0.952291         1.658634
