19
Iteration:  1246charge 0 multiplicity 1
 C         0.175484         0.199069         0.435223
 C         1.503086        -0.227327        -0.183789
 C         1.960665        -1.646938        -0.137247
 C         3.228791        -1.077259         0.627446
 O         4.035415        -1.779939         1.543665
 C         3.747342         0.138069        -0.119602
 C         3.245861         0.394118        -1.556093
 O         1.723146         0.292512        -1.511942
 C         2.575253         0.221912         0.816662
 H        -0.183998        -0.435118         1.209840
 H         0.407508         1.196106         0.877068
 H        -0.523546         0.205817        -0.385882
 H         1.286033        -2.184784         0.622654
 H         2.091428        -2.227108        -1.147610
 H         3.597816        -1.761265         2.412962
 H         4.752375         0.489640         0.134406
 H         3.534087         1.509879        -1.633969
 H         3.458204        -0.137687        -2.507541
 H         2.346391         0.866355         1.676424
