19
Iteration:  4351
 C         0.077817         0.215038         0.244207
 C         1.480009        -0.121224        -0.110053
 C         1.923504        -1.632138        -0.066914
 C         3.217904        -1.138433         0.664426
 O         4.053129        -1.866021         1.488546
 C         3.748018         0.040088        -0.166911
 C         3.183709         0.270528        -1.554097
 O         1.807234         0.490036        -1.305956
 C         2.603732         0.242609         0.828744
 H        -0.109037        -0.458815         1.004619
 H         0.089415         1.236664         0.346316
 H        -0.585008         0.029405        -0.586149
 H         1.275607        -2.346220         0.582038
 H         1.902207        -2.125450        -1.084695
 H         4.803083        -1.292426         1.765550
 H         4.647153         0.508773         0.043096
 H         3.481942         1.248664        -2.042922
 H         3.314924        -0.641176        -2.217493
 H         2.734600         1.085049         1.567979
