19
Iteration:  3528
 C        -0.003874         0.342723         0.228075
 C         1.393758        -0.177036        -0.156089
 C         1.922417        -1.606679         0.063943
 C         3.265947        -1.143901         0.585377
 O         4.136732        -1.944352         1.353179
 C         3.714457         0.172922        -0.049622
 C         3.274303         0.530914        -1.414058
 O         1.800784         0.129056        -1.473371
 C         2.572790         0.243376         0.903432
 H        -0.181918         0.346322         1.358874
 H         0.078854         1.406693        -0.162576
 H        -0.876411        -0.253603        -0.077782
 H         1.376972        -2.213236         0.864115
 H         1.858655        -2.298427        -0.742043
 H         4.989394        -1.824041         0.912790
 H         4.718843         0.471025         0.456936
 H         3.071056         1.608216        -1.562107
 H         3.824375         0.110694        -2.310079
 H         2.601157         1.074714         1.613497
