19
Iteration:  4437charge 0 multiplicity 1
 C        -0.025814         0.251879         0.198049
 C         1.457067        -0.106032        -0.096023
 C         1.937691        -1.582649         0.072917
 C         3.204350        -1.125361         0.708565
 O         4.136078        -1.965950         1.386634
 C         3.751946        -0.002142        -0.105311
 C         3.247792         0.393359        -1.557791
 O         1.774436         0.341680        -1.401868
 C         2.623893         0.311678         0.858878
 H        -0.376288         0.439307         1.277578
 H        -0.273437         1.284226        -0.116790
 H        -0.763148        -0.400502        -0.322076
 H         1.155999        -2.097028         0.720219
 H         1.903539        -2.162970        -0.899455
 H         5.021433        -1.589268         1.184416
 H         4.664743         0.374872         0.222161
 H         3.574802         1.405906        -1.786144
 H         3.655018        -0.282025        -2.294862
 H         2.646215         1.064066         1.674978
