19
Iteration:  1655
 C        -0.047492         0.080602         0.206952
 C         1.436701        -0.045396        -0.087868
 C         1.957270        -1.558797         0.091469
 C         3.243916        -1.018446         0.673529
 O         4.136944        -1.895499         1.423010
 C         3.785635         0.048550        -0.180261
 C         3.237376         0.190180        -1.525382
 O         1.765364         0.453515        -1.378915
 C         2.635000         0.409824         0.780319
 H        -0.284333        -0.345654         1.195117
 H        -0.298715         1.143622         0.351750
 H        -0.447771        -0.644304        -0.553633
 H         1.445149        -2.083725         0.887421
 H         2.128174        -2.134312        -0.814953
 H         3.662681        -2.682322         1.779096
 H         4.701348         0.576140         0.024949
 H         3.597062         1.179567        -1.989062
 H         3.418198        -0.638188        -2.195892
 H         2.803878         1.179983         1.469690
