19
Iteration:  4915charge 0 multiplicity 1
 C         0.011971         0.209994         0.239214
 C         1.526370        -0.061803        -0.083798
 C         1.991167        -1.609905         0.026814
 C         3.220210        -1.105311         0.693450
 O         4.111473        -1.899415         1.445559
 C         3.699991         0.094310        -0.152944
 C         3.146379         0.103717        -1.620363
 O         1.794362         0.586921        -1.419852
 C         2.649322         0.325458         0.889921
 H        -0.145198        -0.207353         1.317321
 H        -0.156112         1.315733         0.094461
 H        -0.529057        -0.362841        -0.487052
 H         1.360709        -2.340642         0.576465
 H         2.279441        -2.143697        -0.824501
 H         3.708321        -2.299334         2.248848
 H         4.723225         0.246414         0.005821
 H         3.534536         0.850094        -2.323757
 H         3.237348        -0.970138        -2.113215
 H         2.692155         1.195211         1.552335
