19
Iteration:   211charge 0 multiplicity 1
 C         0.078019         0.261961         0.286792
 C         1.471197        -0.172078        -0.129675
 C         2.032982        -1.716879        -0.081300
 C         3.222318        -1.184094         0.646064
 O         4.026844        -1.862420         1.600554
 C         3.753911         0.107157        -0.137798
 C         3.193008         0.476581        -1.528680
 O         1.739351         0.317831        -1.486268
 C         2.569949         0.283858         0.805348
 H        -0.304420        -0.192519         1.185230
 H        -0.003668         1.357428         0.472876
 H        -0.609104         0.051430        -0.453216
 H         1.405483        -2.496251         0.535789
 H         2.179059        -2.248717        -1.061483
 H         4.857421        -1.380624         1.571368
 H         4.719510         0.406035         0.224741
 H         3.457763         1.513808        -1.664897
 H         3.698561        -0.117913        -2.259149
 H         2.616038         0.882761         1.656901
