19
Iteration:  3399
 C         0.006678         0.106061         0.297234
 C         1.470312        -0.123139        -0.067405
 C         1.917294        -1.618070        -0.053745
 C         3.247104        -1.123585         0.689955
 O         4.027223        -1.897846         1.593528
 C         3.785010         0.157252        -0.184378
 C         3.201104         0.469713        -1.569820
 O         1.766500         0.381609        -1.448152
 C         2.703173         0.227324         0.805467
 H        -0.122469        -0.411257         1.293427
 H        -0.330081         1.138522         0.414558
 H        -0.499281        -0.071361        -0.635631
 H         1.241237        -2.271981         0.569789
 H         2.126101        -1.873610        -1.114239
 H         4.594654        -2.497734         1.080083
 H         4.814675         0.658664         0.122854
 H         3.600490         1.466879        -1.824200
 H         3.387830        -0.164122        -2.529245
 H         2.655789         0.886057         1.663332
