19
Iteration:  1389charge 0 multiplicity 1
 C        -0.005824         0.334485         0.294083
 C         1.506470        -0.207839        -0.111224
 C         1.950773        -1.710228         0.041154
 C         3.181960        -1.124536         0.607945
 O         4.137617        -1.807560         1.470103
 C         3.776996         0.101580        -0.139899
 C         3.231054         0.485947        -1.522058
 O         1.753025         0.199223        -1.491327
 C         2.628023         0.259351         0.824273
 H        -0.272033        -0.073374         1.193657
 H         0.164913         1.394844         0.328498
 H        -0.608247         0.253122        -0.550682
 H         1.312345        -2.148567         0.789172
 H         2.004103        -2.309437        -0.863468
 H         3.626681        -2.145133         2.245043
 H         4.847305         0.345884         0.103516
 H         3.447480         1.568181        -1.767396
 H         3.626200        -0.130516        -2.295280
 H         2.511313         1.052176         1.585016
