19
Iteration:  2312
 C         0.207602         0.191377         0.410319
 C         1.488154        -0.205498        -0.070047
 C         1.940674        -1.660495        -0.111917
 C         3.204703        -1.118454         0.577775
 O         3.894884        -1.776204         1.560030
 C         3.749529         0.136405        -0.187786
 C         3.217610         0.409112        -1.614247
 O         1.786790         0.312668        -1.432526
 C         2.638487         0.251967         0.844956
 H         0.016661        -0.180850         1.411642
 H         0.214849         1.284131         0.434847
 H        -0.764964        -0.161053        -0.227501
 H         1.537942        -2.241141         0.756045
 H         1.960424        -2.215032        -1.035578
 H         4.815082        -1.939600         1.331057
 H         4.699605         0.443211         0.066166
 H         3.317304         1.519367        -1.874216
 H         3.460797        -0.330690        -2.380926
 H         2.606603         0.931228         1.656217
