19
Iteration:  4638
 C        -0.036830         0.167013         0.084648
 C         1.416779        -0.045871        -0.009670
 C         1.963832        -1.499678         0.166144
 C         3.294453        -1.070363         0.576795
 O         4.039200        -1.970057         1.249623
 C         3.846000         0.073111        -0.108180
 C         3.156368         0.160072        -1.456934
 O         1.796947         0.452421        -1.359156
 C         2.670956         0.318097         0.930949
 H        -0.512033        -0.497581         0.744135
 H        -0.307967         1.222334         0.013966
 H        -0.527071        -0.244688        -0.935633
 H         1.365200        -1.923678         1.092931
 H         1.906773        -2.029742        -0.806314
 H         4.699400        -1.464875         1.749803
 H         4.665597         0.694008         0.171742
 H         3.538430         0.920495        -2.049443
 H         3.415173        -0.729462        -1.946673
 H         2.779835         0.854124         1.877515
