19
Iteration:  1170charge 0 multiplicity 1
 C        -0.089041         0.080835         0.098655
 C         1.442065        -0.102280        -0.085173
 C         1.872153        -1.605248         0.041445
 C         3.207996        -1.016066         0.734513
 O         4.266191        -1.888516         1.241743
 C         3.759510         0.110087        -0.098637
 C         3.251633         0.180505        -1.535364
 O         1.824000         0.522510        -1.327023
 C         2.580687         0.365595         0.960102
 H        -0.310756         0.047845         1.152582
 H        -0.272345         1.091573        -0.329516
 H        -0.462300        -0.813119        -0.346926
 H         1.264730        -1.943930         0.940659
 H         1.846978        -2.311143        -0.857713
 H         3.968589        -2.391241         2.038199
 H         4.681170         0.552347         0.151916
 H         3.643115         1.057707        -2.140394
 H         3.456750        -0.789849        -2.111406
 H         2.589486         0.953845         1.842437
