19
Iteration:  1326
 C        -0.106791         0.096808         0.053139
 C         1.426473        -0.059290        -0.018024
 C         2.047077        -1.524049         0.149688
 C         3.253248        -1.030748         0.751812
 O         4.174052        -1.894213         1.268453
 C         3.703377         0.083531        -0.163948
 C         3.196822         0.181285        -1.516372
 O         1.825325         0.471758        -1.338479
 C         2.651502         0.354554         0.891567
 H        -0.577045         0.162782         1.009275
 H        -0.339180         1.080597        -0.384070
 H        -0.671987        -0.618734        -0.578031
 H         1.334211        -2.060582         0.855687
 H         2.149975        -2.206521        -0.775821
 H         3.716302        -2.571217         1.809776
 H         4.718295         0.484585         0.041330
 H         3.773224         0.951963        -2.006668
 H         3.221472        -0.763397        -2.104654
 H         2.773515         0.834064         1.845739
