19
Iteration:  1994
 C         0.217133         0.083129         0.456644
 C         1.514462        -0.226223        -0.164572
 C         1.953089        -1.640398        -0.079153
 C         3.218002        -1.091082         0.589405
 O         3.833000        -1.734308         1.604427
 C         3.796223         0.094715        -0.215630
 C         3.186856         0.376015        -1.619651
 O         1.761045         0.385963        -1.379067
 C         2.716385         0.363083         0.783654
 H        -0.019712        -0.321501         1.493132
 H        -0.048605         1.197414         0.480878
 H        -0.461885        -0.412501        -0.240396
 H         1.255283        -2.103040         0.721233
 H         2.056947        -2.196361        -1.104940
 H         4.344535        -2.518637         1.360363
 H         4.845227         0.076324        -0.165889
 H         3.376616         1.380114        -1.847939
 H         3.465670        -0.442905        -2.387523
 H         2.589506         1.160514         1.447532
