19
Iteration:  4101charge 0 multiplicity 1
 C         0.184833         0.379919         0.321452
 C         1.432094        -0.255903        -0.082124
 C         1.955225        -1.763900        -0.027472
 C         3.256606        -1.131056         0.489950
 O         3.942597        -1.805844         1.484353
 C         3.767257         0.148573        -0.155315
 C         3.218245         0.492493        -1.489847
 O         1.762436         0.252159        -1.368321
 C         2.545563         0.165392         0.769220
 H         0.133332         0.324899         1.447815
 H         0.351752         1.497934        -0.024677
 H        -0.727425        -0.041210        -0.233038
 H         1.656621        -2.272489         0.916635
 H         1.940284        -2.231214        -0.975204
 H         4.877187        -2.000143         1.335628
 H         4.719791         0.675234         0.257663
 H         3.365601         1.608003        -1.519234
 H         3.664100        -0.082388        -2.280488
 H         2.548192         0.691273         1.671060
