19
Iteration:  4848
 C         0.166347         0.302351         0.375169
 C         1.463051        -0.147138        -0.164475
 C         1.893173        -1.662054         0.048537
 C         3.247056        -1.145306         0.611081
 O         4.001913        -1.845994         1.514836
 C         3.808376         0.094045        -0.226066
 C         3.175569         0.484339        -1.508705
 O         1.774690         0.191877        -1.477534
 C         2.665843         0.299002         0.749505
 H        -0.023618        -0.096915         1.460293
 H         0.222137         1.395114         0.168342
 H        -0.654798        -0.089714        -0.172464
 H         1.341665        -2.230083         0.817382
 H         1.766629        -2.134998        -0.812784
 H         3.325102        -2.244985         2.079428
 H         4.859275         0.260428         0.068100
 H         3.412317         1.550009        -1.540602
 H         3.653174         0.032433        -2.460949
 H         2.781385         1.062063         1.533903
