19
Iteration:  1235
 C         0.130128         0.194917         0.324023
 C         1.465352        -0.186810        -0.112047
 C         2.021399        -1.668579        -0.041358
 C         3.264516        -1.130689         0.627747
 O         4.058325        -1.811023         1.520276
 C         3.785077         0.101318        -0.102939
 C         3.170097         0.442834        -1.572432
 O         1.716894         0.345425        -1.536642
 C         2.592853         0.268746         0.851049
 H        -0.269530        -0.487687         1.043437
 H         0.113875         1.238863         0.772496
 H        -0.605107         0.358788        -0.453975
 H         1.447444        -2.361104         0.697816
 H         1.992706        -2.231942        -1.080510
 H         3.540380        -1.904865         2.325374
 H         4.774165         0.418396         0.216330
 H         3.385909         1.429896        -2.142912
 H         3.660891        -0.401008        -2.209794
 H         2.545273         0.876547         1.763799
