19
Iteration:  3197
 C         0.055792         0.173872         0.348331
 C         1.475816        -0.166723        -0.116076
 C         1.975880        -1.644023        -0.059278
 C         3.264992        -1.137350         0.543032
 O         3.976542        -1.824963         1.457283
 C         3.804305         0.233917        -0.114557
 C         3.255155         0.499213        -1.541466
 O         1.829943         0.285495        -1.384872
 C         2.549806         0.195125         0.843181
 H        -0.079647         0.090531         1.455655
 H        -0.033208         1.241969         0.206789
 H        -0.747480        -0.426434        -0.217329
 H         1.516329        -2.289296         0.750499
 H         1.834351        -2.215708        -0.989740
 H         4.122902        -2.684763         1.007645
 H         4.765763         0.705919         0.425610
 H         3.404077         1.535452        -1.706321
 H         3.523700        -0.283063        -2.207323
 H         2.351031         0.857426         1.641934
