19
Iteration:  2644charge 0 multiplicity 1
 C         0.120766         0.269576         0.261560
 C         1.515233        -0.075887        -0.137428
 C         1.920002        -1.677092         0.104932
 C         3.179481        -1.128727         0.720919
 O         4.185585        -1.838748         1.358703
 C         3.692466         0.162654        -0.112764
 C         3.205064         0.445437        -1.563211
 O         1.754269         0.169474        -1.502061
 C         2.574133         0.295127         0.878471
 H        -0.159963        -0.278778         1.174607
 H         0.081443         1.357026         0.453030
 H        -0.516177        -0.135103        -0.433781
 H         1.284694        -2.238723         0.795987
 H         2.140768        -2.173812        -0.886317
 H         3.666228        -2.362408         2.015489
 H         4.658364         0.480827         0.277962
 H         3.339349         1.520198        -1.980843
 H         3.620878        -0.247566        -2.362972
 H         2.505751         1.037629         1.768400
