19
Iteration:  2251
 C         0.033465         0.154553         0.007241
 C         1.515046        -0.069645         0.007236
 C         1.893620        -1.630872         0.177102
 C         3.163301        -1.120317         0.659342
 O         4.166919        -1.868691         1.302881
 C         3.707665         0.160223        -0.080624
 C         3.150326         0.263808        -1.573285
 O         1.760892         0.460809        -1.335807
 C         2.686145         0.319822         0.979950
 H        -0.356659        -0.053809         1.015725
 H        -0.143921         1.195672        -0.253850
 H        -0.300987        -0.566928        -0.642861
 H         1.422337        -2.118612         1.038641
 H         2.011940        -2.334293        -0.743999
 H         4.507086        -2.469757         0.627175
 H         4.735579         0.421526         0.192611
 H         3.511016         1.100768        -2.134150
 H         3.495079        -0.678303        -2.188688
 H         2.617122         0.858143         1.866327
