19
Iteration:  4758charge 0 multiplicity 1
 C         0.018311         0.189427         0.253411
 C         1.490448        -0.078008        -0.143505
 C         1.959821        -1.597944         0.062484
 C         3.255183        -1.088592         0.740562
 O         4.120356        -1.977657         1.416719
 C         3.725701         0.069198        -0.139867
 C         3.240494         0.205470        -1.613494
 O         1.745370         0.525508        -1.382823
 C         2.664362         0.377876         0.839662
 H        -0.384690        -0.107202         1.226759
 H        -0.242465         1.241917         0.063214
 H        -0.710209        -0.414621        -0.438117
 H         1.275447        -1.971981         0.797430
 H         2.113669        -2.181231        -0.750031
 H         3.538634        -2.583838         1.908452
 H         4.727675         0.444407         0.067424
 H         3.696242         1.038753        -2.156779
 H         3.260108        -0.665905        -2.363826
 H         2.769873         1.258484         1.479295
