19
Iteration:  2816charge 0 multiplicity 1
 C         0.023493         0.200088         0.084451
 C         1.471181        -0.160615        -0.055855
 C         1.837566        -1.610488         0.110905
 C         3.215511        -1.146729         0.639628
 O         4.267097        -1.826219         1.348791
 C         3.716438         0.122689        -0.131189
 C         3.169903         0.404407        -1.507698
 O         1.740025         0.348740        -1.354017
 C         2.707429         0.259538         0.886840
 H        -0.464148        -0.155227         1.025386
 H        -0.143125         1.259564        -0.143857
 H        -0.406761        -0.062858        -0.911381
 H         1.284899        -2.079653         0.934817
 H         1.659847        -2.216241        -0.721136
 H         3.886154        -2.304814         2.101651
 H         4.783670         0.314249         0.205681
 H         3.450125         1.340539        -1.972430
 H         3.518785        -0.335516        -2.302951
 H         2.766114         0.802573         1.907405
