19
Iteration:  1426
 C         0.103286         0.207533         0.362929
 C         1.461114        -0.200785        -0.137772
 C         2.012336        -1.678844        -0.053937
 C         3.223573        -1.169866         0.617226
 O         3.970558        -1.756422         1.602945
 C         3.835458         0.010988        -0.250811
 C         3.171104         0.541128        -1.561678
 O         1.735720         0.334438        -1.459347
 C         2.746866         0.233712         0.772361
 H        -0.379028        -0.140077         1.220302
 H         0.036672         1.281840         0.419506
 H        -0.664439        -0.221401        -0.321674
 H         1.345499        -2.071285         0.798465
 H         2.046216        -2.440772        -0.895227
 H         3.335662        -1.819621         2.359602
 H         4.837817         0.205362         0.068411
 H         3.287850         1.561149        -1.863704
 H         3.587422        -0.129262        -2.309140
 H         2.765308         0.945569         1.606089
