19
Iteration:  2790charge 0 multiplicity 1
 C        -0.014521         0.321322         0.229347
 C         1.416948        -0.168304        -0.115284
 C         1.928427        -1.715265         0.123422
 C         3.227311        -1.120321         0.621879
 O         4.228840        -1.808827         1.358584
 C         3.732003        -0.018738        -0.182720
 C         3.239811         0.537181        -1.473277
 O         1.789871         0.210431        -1.436434
 C         2.572068         0.288442         0.885545
 H        -0.354479        -0.036679         1.185776
 H        -0.056531         1.399426         0.095501
 H        -0.686563         0.127411        -0.709387
 H         1.574974        -2.320266         0.964539
 H         1.847567        -2.294910        -0.870523
 H         3.792408        -2.146610         2.155778
 H         4.676375         0.311360         0.219491
 H         3.473684         1.627939        -1.662306
 H         3.642440         0.181796        -2.451622
 H         2.712112         0.972008         1.611952
