19
Iteration:   855
 C        -0.110203         0.133191         0.027232
 C         1.412316        -0.153468         0.034360
 C         2.017795        -1.611614         0.069503
 C         3.329344        -1.098111         0.693690
 O         4.203802        -1.877405         1.395785
 C         3.799306         0.024588        -0.099856
 C         3.139784         0.282834        -1.611166
 O         1.764715         0.529413        -1.349225
 C         2.649855         0.352380         0.857977
 H        -0.589659        -0.401376         0.801329
 H        -0.298974         1.141628         0.271894
 H        -0.451388        -0.186989        -0.865819
 H         1.505389        -1.980977         1.023069
 H         2.001865        -2.316623        -0.848519
 H         3.733885        -2.202024         2.175518
 H         4.790218         0.377711         0.053197
 H         3.459516         1.213622        -1.963134
 H         3.116581        -0.556913        -2.311012
 H         2.528912         1.076542         1.624102
