19
Iteration:  3741charge 0 multiplicity 1
 C         0.053406         0.176683         0.108887
 C         1.494586        -0.128378        -0.024927
 C         1.932526        -1.571930         0.113786
 C         3.238735        -1.041016         0.667648
 O         4.103993        -1.992851         1.255438
 C         3.756655         0.173299        -0.036964
 C         3.154495         0.314661        -1.562766
 O         1.801150         0.434209        -1.299392
 C         2.576427         0.279873         0.949204
 H        -0.447362        -0.584264         0.699715
 H        -0.154769         1.330152         0.122227
 H        -0.466288        -0.077303        -0.915915
 H         1.316674        -2.057485         0.855500
 H         1.928086        -2.230243        -0.738881
 H         4.918815        -1.808201         0.762911
 H         4.848131         0.380657         0.281792
 H         3.506146         1.044122        -2.244326
 H         3.306800        -0.597716        -2.159165
 H         2.419869         0.850852         1.836417
