19
Iteration:  2806
 C         0.006720         0.284543         0.060589
 C         1.465381        -0.144191        -0.006975
 C         1.844211        -1.643448         0.105548
 C         3.263397        -1.166434         0.609895
 O         4.257378        -1.795853         1.343964
 C         3.764428         0.067542        -0.130713
 C         3.129121         0.414818        -1.445642
 O         1.762205         0.295752        -1.392294
 C         2.648571         0.217651         0.819468
 H        -0.527568        -0.130302         0.969230
 H         0.002568         1.378509         0.253525
 H        -0.573760        -0.281606        -0.618099
 H         1.175518        -1.916259         0.937017
 H         1.934268        -2.250299        -0.738460
 H         3.937131        -2.233423         2.145858
 H         4.822787         0.352024         0.144906
 H         3.405290         1.483691        -1.458361
 H         3.595484        -0.091698        -2.307579
 H         2.600675         1.068722         1.657057
