19
Iteration:  3248charge 0 multiplicity 1
 C         0.093540         0.050169         0.328777
 C         1.499565        -0.200904        -0.065191
 C         1.978750        -1.683555        -0.169484
 C         3.202872        -1.100726         0.590490
 O         3.931196        -1.735862         1.630982
 C         3.788960         0.013666        -0.241286
 C         3.189782         0.388185        -1.552684
 O         1.777622         0.576219        -1.275158
 C         2.659169         0.255594         0.760828
 H        -0.325418        -0.756655         0.972250
 H         0.016291         1.077104         0.670895
 H        -0.555793        -0.243928        -0.534985
 H         1.331010        -2.362205         0.332504
 H         2.193805        -2.218022        -1.122761
 H         4.611263        -2.192687         1.109527
 H         4.694486         0.410673         0.195688
 H         3.691502         1.412342        -1.897960
 H         3.382806        -0.415417        -2.402844
 H         2.800053         0.934727         1.545879
