19
Iteration:  1274
 C         0.081825         0.162272         0.461743
 C         1.463168        -0.211608        -0.113126
 C         1.962598        -1.753127        -0.093013
 C         3.198738        -1.116218         0.596361
 O         4.016335        -1.732664         1.540678
 C         3.823834         0.043202        -0.143384
 C         3.285858         0.480548        -1.604626
 O         1.759545         0.401088        -1.554078
 C         2.600168         0.248766         0.838133
 H         0.044878        -0.137951         1.583263
 H        -0.192397         1.267515         0.331820
 H        -0.783520        -0.200787        -0.185612
 H         1.492162        -2.437348         0.576842
 H         2.003942        -2.181108        -1.050244
 H         3.537077        -1.733036         2.400175
 H         4.823264         0.093916         0.250205
 H         3.757485         1.434855        -1.806515
 H         3.494043        -0.223583        -2.491509
 H         2.556246         0.926775         1.657353
