19
Iteration:   467charge 0 multiplicity 1
 C         0.118053         0.184770         0.284813
 C         1.444408        -0.203098        -0.159679
 C         2.026321        -1.669929         0.011520
 C         3.200943        -1.023238         0.591819
 O         3.950803        -1.873912         1.492297
 C         3.701397         0.143115        -0.118234
 C         3.227545         0.440348        -1.526946
 O         1.833804         0.291242        -1.431303
 C         2.607727         0.267815         0.818892
 H         0.082271         0.003428         1.325128
 H        -0.120137         1.182239         0.020421
 H        -0.638421        -0.479090        -0.206546
 H         1.377735        -2.214886         0.861325
 H         2.044609        -2.304672        -0.932925
 H         4.834839        -1.492034         1.508595
 H         4.632356         0.558592         0.229521
 H         3.405928         1.547910        -1.633260
 H         3.637574        -0.218024        -2.340340
 H         2.407925         0.804097         1.728409
