19
Iteration:  4549
 C         0.174020         0.290251         0.427326
 C         1.551860        -0.261669        -0.141389
 C         1.888960        -1.773576        -0.124255
 C         3.270948        -1.161465         0.532720
 O         3.876943        -1.746975         1.667330
 C         3.792323         0.086007        -0.209910
 C         3.228707         0.601517        -1.536192
 O         1.743535         0.328387        -1.411970
 C         2.651822         0.174958         0.724738
 H         0.025121         0.020942         1.440703
 H         0.287746         1.364759         0.397278
 H        -0.515396        -0.217011        -0.321214
 H         1.383551        -2.288694         0.812407
 H         1.969510        -2.270056        -1.132942
 H         4.014638        -2.692532         1.539908
 H         4.837174         0.518055         0.067182
 H         3.235285         1.612148        -1.843973
 H         3.629193         0.076757        -2.349245
 H         2.635659         0.848350         1.595552
