19
Iteration:  2040
 C         0.058885         0.288040         0.308217
 C         1.418982        -0.178058        -0.105911
 C         1.959999        -1.741695         0.008720
 C         3.235215        -1.119726         0.590063
 O         4.080623        -1.829330         1.562545
 C         3.734772         0.055506        -0.192989
 C         3.253377         0.424166        -1.546294
 O         1.735503         0.325709        -1.429479
 C         2.599301         0.296622         0.763344
 H        -0.117889        -0.019433         1.375670
 H         0.205685         1.385048         0.364110
 H        -0.921477         0.105391        -0.212400
 H         1.475012        -2.175327         0.918186
 H         1.940473        -2.387192        -0.946742
 H         4.876991        -2.004381         1.037706
 H         4.655664         0.477778         0.231106
 H         3.539460         1.430210        -1.648412
 H         3.597301        -0.320425        -2.320489
 H         2.697979         1.010624         1.535550
