19
Iteration:  1244charge 0 multiplicity 1
 C         0.174472         0.203967         0.418458
 C         1.496714        -0.225499        -0.168863
 C         1.964149        -1.652692        -0.131127
 C         3.241389        -1.070216         0.631381
 O         4.037601        -1.786426         1.540960
 C         3.757945         0.131222        -0.100308
 C         3.244502         0.397361        -1.566311
 O         1.712968         0.300535        -1.530843
 C         2.576296         0.226062         0.832015
 H        -0.251480        -0.465814         1.213485
 H         0.461911         1.156612         0.880266
 H        -0.499116         0.166712        -0.425652
 H         1.329117        -2.153049         0.628181
 H         2.051669        -2.188019        -1.103785
 H         3.594278        -1.780852         2.394154
 H         4.730649         0.449636         0.121854
 H         3.495411         1.514414        -1.712019
 H         3.398935        -0.141807        -2.453518
 H         2.355554         0.837590         1.669338
