19
Iteration:  4644charge 0 multiplicity 1
 C        -0.073717         0.190778         0.067707
 C         1.456743        -0.092171        -0.026969
 C         1.941797        -1.514964         0.121139
 C         3.280675        -1.050049         0.574184
 O         4.041202        -1.968672         1.286530
 C         3.786521         0.093971        -0.130126
 C         3.180247         0.227886        -1.469936
 O         1.786426         0.392740        -1.296878
 C         2.708208         0.319513         0.908977
 H        -0.498659        -0.480820         0.884784
 H        -0.155540         1.295024         0.223703
 H        -0.297901        -0.197700        -0.913721
 H         1.460082        -1.883558         0.959584
 H         1.839612        -1.977423        -0.880798
 H         4.614206        -1.563881         1.945071
 H         4.712547         0.686376         0.184144
 H         3.694280         0.938318        -2.233817
 H         3.313373        -0.803937        -2.040928
 H         2.846951         0.849009         1.863243
