19
Iteration:  4686
 C         0.155179         0.265237         0.353329
 C         1.444698        -0.151618        -0.189521
 C         1.968373        -1.658391        -0.067537
 C         3.228276        -1.152901         0.645977
 O         4.027311        -1.857918         1.526070
 C         3.739503        -0.022515        -0.190458
 C         3.236195         0.409264        -1.507597
 O         1.718988         0.399469        -1.452819
 C         2.584175         0.210880         0.764413
 H         0.009978        -0.260938         1.349893
 H         0.329844         1.357084         0.383223
 H        -0.757845         0.108640        -0.066012
 H         1.364693        -2.000420         0.822889
 H         2.150606        -2.407388        -0.998519
 H         4.189859        -1.372174         2.362373
 H         4.728014         0.379042         0.204514
 H         3.527835         1.508420        -1.700760
 H         3.677856        -0.048348        -2.394112
 H         2.694356         1.009657         1.517405
