19
Iteration:  3022charge 0 multiplicity 1
 C        -0.108268         0.130225         0.265988
 C         1.442655        -0.157902        -0.121623
 C         2.024304        -1.584792        -0.054781
 C         3.264097        -1.118171         0.629064
 O         4.077065        -1.917380         1.490801
 C         3.740926         0.031911        -0.211756
 C         3.193256         0.375906        -1.546151
 O         1.829906         0.513273        -1.323326
 C         2.651094         0.232251         0.861759
 H        -0.392716        -0.060835         1.301325
 H        -0.233825         1.122615        -0.048314
 H        -0.814279        -0.424581        -0.424434
 H         1.482083        -2.262913         0.721246
 H         2.256522        -2.089341        -1.066826
 H         4.423151        -1.346806         2.209374
 H         4.700010         0.318566        -0.111556
 H         3.729039         1.258211        -2.006093
 H         3.353204        -0.258066        -2.402879
 H         2.629179         1.041260         1.647829
