19
Iteration:  3495
 C         0.080435         0.141977         0.253612
 C         1.497671        -0.202280        -0.081754
 C         1.905061        -1.675910         0.108020
 C         3.181503        -1.148731         0.517418
 O         3.956774        -1.893478         1.459940
 C         3.732048         0.160328        -0.172825
 C         3.234629         0.624394        -1.535932
 O         1.830771         0.253366        -1.367956
 C         2.666513         0.273953         0.803504
 H        -0.125561         0.220505         1.373632
 H        -0.030864         1.267907        -0.021306
 H        -0.612984        -0.353010        -0.466653
 H         1.406703        -2.088783         1.054073
 H         1.950761        -2.238982        -0.761129
 H         4.877619        -1.945159         1.171793
 H         4.885976         0.223186         0.046940
 H         3.204273         1.729964        -1.495550
 H         3.783568         0.172256        -2.412704
 H         2.618554         0.906967         1.700193
