19
Iteration:  2848
 C        -0.042212         0.107923         0.278338
 C         1.418149        -0.136120        -0.126434
 C         2.031111        -1.547791         0.016119
 C         3.256184        -1.055049         0.679467
 O         4.137730        -1.890974         1.317704
 C         3.735881         0.091706        -0.098895
 C         3.234301         0.211512        -1.500116
 O         1.814551         0.499763        -1.351114
 C         2.610530         0.345860         0.770907
 H        -0.482845        -0.233363         1.257139
 H        -0.234954         1.183074         0.132439
 H        -0.595405        -0.530944        -0.543415
 H         1.521175        -2.109052         0.816699
 H         1.968740        -2.168855        -0.846469
 H         3.608121        -2.408279         1.961763
 H         4.701927         0.562029         0.249245
 H         3.585276         1.119709        -1.970511
 H         3.273484        -0.771136        -1.985149
 H         2.640064         1.155976         1.590550
