19
Iteration:   163charge 0 multiplicity 1
 C         0.002292         0.192990         0.304203
 C         1.478091        -0.187163        -0.135443
 C         1.971385        -1.759773         0.040667
 C         3.285447        -1.113748         0.572232
 O         3.920442        -1.782764         1.485077
 C         3.793533         0.089979        -0.161256
 C         3.247460         0.425180        -1.467776
 O         1.783094         0.387160        -1.474864
 C         2.615221         0.309459         0.785302
 H        -0.307932        -0.176470         1.267455
 H        -0.211399         1.212054         0.336958
 H        -0.748482        -0.313232        -0.340794
 H         1.522509        -2.402115         0.784406
 H         2.236641        -2.449466        -0.807386
 H         4.904139        -1.825271         1.495914
 H         4.768017         0.427609         0.301664
 H         3.582500         1.422655        -1.628983
 H         3.752754        -0.151311        -2.277857
 H         2.654003         0.852697         1.809109
