19
Iteration:  3897
 C        -0.061198         0.324864         0.102564
 C         1.382268        -0.126268        -0.101396
 C         1.905507        -1.619068         0.078675
 C         3.309968        -1.174913         0.645302
 O         4.252811        -1.874690         1.356530
 C         3.783921         0.083170        -0.070075
 C         3.198390         0.373682        -1.493572
 O         1.739155         0.390163        -1.379178
 C         2.562301         0.223286         0.932079
 H        -0.599457        -0.071766         1.084144
 H         0.005317         1.427684         0.347518
 H        -0.579243         0.033575        -0.864676
 H         1.373562        -2.131166         0.815940
 H         1.910988        -2.380103        -0.703159
 H         4.558179        -2.602601         0.793368
 H         4.839089         0.431133         0.172386
 H         3.562411         1.398804        -1.730403
 H         3.680710        -0.356053        -2.220135
 H         2.543876         0.735923         1.912409
