19
Iteration:  1998charge 0 multiplicity 1
 C         0.219683         0.100428         0.467997
 C         1.537435        -0.203445        -0.146560
 C         1.936247        -1.647828        -0.083476
 C         3.182727        -1.106081         0.589750
 O         3.821283        -1.730185         1.611150
 C         3.784825         0.104001        -0.213910
 C         3.212376         0.390157        -1.611988
 O         1.759843         0.341049        -1.405702
 C         2.689262         0.349511         0.779599
 H         0.125963        -0.303759         1.483179
 H         0.036444         1.147125         0.609480
 H        -0.425933        -0.468197        -0.269475
 H         1.318096        -2.142481         0.617596
 H         2.008328        -2.161744        -1.022035
 H         4.464641        -2.416545         1.298956
 H         4.906308         0.186343        -0.194814
 H         3.354025         1.481847        -1.968058
 H         3.472818        -0.301207        -2.439315
 H         2.819803         1.117781         1.591017
