19
Iteration:  1965charge 0 multiplicity 1
 C         0.005898         0.180430         0.309843
 C         1.408710        -0.071781        -0.161351
 C         2.047944        -1.625727        -0.025949
 C         3.313263        -1.100459         0.681661
 O         4.099996        -1.828424         1.618048
 C         3.740040         0.062667        -0.222935
 C         3.153440         0.208537        -1.686158
 O         1.752485         0.583973        -1.373836
 C         2.646996         0.222290         0.878813
 H        -0.277168        -0.308669         1.245713
 H        -0.493100         1.101183         0.086535
 H        -0.606271        -0.456561        -0.399148
 H         1.366050        -2.144580         0.588980
 H         2.160207        -2.192184        -0.936414
 H         4.050593        -2.801104         1.582423
 H         4.668176         0.582379        -0.029259
 H         3.583454         1.105559        -2.217829
 H         3.267211        -0.695752        -2.311750
 H         2.988522         0.972416         1.571195
