19
Iteration:  4708
 C         0.179435         0.263213         0.517353
 C         1.493985        -0.168966        -0.125716
 C         1.846916        -1.747465        -0.114657
 C         3.211517        -1.206969         0.564580
 O         3.931213        -1.757314         1.590199
 C         3.777168         0.037288        -0.212877
 C         3.236736         0.528445        -1.560883
 O         1.822864         0.338060        -1.493467
 C         2.678848         0.211394         0.722322
 H         0.047243        -0.153402         1.546775
 H        -0.053933         1.325119         0.388446
 H        -0.643030        -0.221989         0.129638
 H         1.297531        -2.476050         0.565714
 H         2.044027        -2.113627        -1.244007
 H         3.695678        -1.280047         2.402650
 H         4.859273         0.254469         0.095577
 H         3.640713         1.533792        -1.879913
 H         3.554474        -0.091537        -2.393476
 H         2.537029         0.672306         1.717012
