19
Iteration:   994
 C        -0.005524         0.158086         0.159725
 C         1.444486        -0.151379        -0.117221
 C         1.861569        -1.681989         0.022474
 C         3.220145        -1.156682         0.610448
 O         4.213195        -1.784536         1.356932
 C         3.724392         0.066821        -0.110955
 C         3.194922         0.404011        -1.511636
 O         1.802028         0.365522        -1.412101
 C         2.645852         0.320839         0.954303
 H        -0.149663        -0.128649         1.268591
 H        -0.082616         1.286333         0.076707
 H        -0.629827        -0.458704        -0.525712
 H         1.275670        -2.108495         0.838192
 H         1.914810        -2.380430        -0.748370
 H         3.805686        -1.861512         2.254745
 H         4.739948         0.406816         0.168973
 H         3.552996         1.408544        -1.669243
 H         3.549916        -0.325920        -2.224650
 H         2.893547         1.097617         1.714383
