19
Iteration:   119charge 0 multiplicity 1
 C        -0.038633         0.090845         0.057304
 C         1.439654        -0.077162        -0.069182
 C         2.007565        -1.617623         0.042154
 C         3.240169        -1.065391         0.701408
 O         4.125246        -1.875000         1.420298
 C         3.762057         0.109222        -0.086943
 C         3.175501         0.208234        -1.447091
 O         1.761857         0.521621        -1.423669
 C         2.635507         0.367983         0.957993
 H        -0.511186        -0.126710         1.000789
 H        -0.384933         1.048578        -0.117489
 H        -0.568248        -0.604897        -0.643018
 H         1.580938        -2.196877         0.864837
 H         2.086081        -2.087972        -0.993811
 H         4.516830        -2.330796         0.625900
 H         4.857209         0.303375         0.098838
 H         3.742418         0.873662        -2.057146
 H         3.246039        -0.745563        -2.020715
 H         2.718662         1.088878         1.803618
