19
Iteration:  3989charge 0 multiplicity 1
 C         0.071836         0.118641         0.311042
 C         1.494916        -0.105584        -0.136993
 C         2.027707        -1.674888        -0.163819
 C         3.158396        -1.140916         0.670379
 O         3.973806        -1.780073         1.507754
 C         3.798374         0.030266        -0.167886
 C         3.163991         0.286504        -1.495649
 O         1.773021         0.554451        -1.330311
 C         2.676525         0.281227         0.835269
 H        -0.016952         0.069762         1.456846
 H        -0.240129         1.182143         0.302354
 H        -0.605374        -0.568537        -0.228981
 H         1.354107        -2.398310         0.383635
 H         2.327231        -2.158652        -1.060926
 H         4.471155        -2.443456         0.976536
 H         4.729379         0.352436         0.109626
 H         3.563663         1.232469        -2.027459
 H         3.136340        -0.515442        -2.227123
 H         2.766201         1.073090         1.621313
