19
Iteration:  3339charge 0 multiplicity 1
 C         0.013204         0.305369         0.211215
 C         1.428384        -0.179929        -0.105506
 C         1.848346        -1.660155         0.022964
 C         3.274872        -1.200025         0.490563
 O         4.190554        -1.841478         1.446130
 C         3.706065         0.209599        -0.036367
 C         3.208052         0.514754        -1.473009
 O         1.859215         0.241982        -1.475884
 C         2.549458         0.188362         0.924258
 H        -0.164635         0.334890         1.300924
 H        -0.085914         1.380925        -0.145377
 H        -0.793397        -0.448978        -0.073712
 H         1.327378        -2.116517         0.820136
 H         1.641938        -2.259190        -0.859922
 H         4.916135        -2.306987         0.969990
 H         4.673131         0.464426         0.432693
 H         3.442082         1.596924        -1.654350
 H         3.618591        -0.297795        -2.196202
 H         2.431484         0.851877         1.834517
