19
Iteration:  1158charge 0 multiplicity 1
 C        -0.047068         0.099064         0.155635
 C         1.412066        -0.130337        -0.068602
 C         1.960097        -1.534095         0.092555
 C         3.262967        -1.087418         0.637304
 O         4.199807        -1.873375         1.254515
 C         3.768313         0.118755        -0.057522
 C         3.230549         0.266670        -1.490950
 O         1.842849         0.451340        -1.354029
 C         2.545197         0.308666         0.870065
 H        -0.315593         0.323734         1.216616
 H        -0.441145         1.003199        -0.387883
 H        -0.809984        -0.600138        -0.174207
 H         1.341760        -2.229061         0.781817
 H         2.024481        -2.132905        -0.932722
 H         3.822237        -2.206896         2.094290
 H         4.726461         0.398413         0.293426
 H         3.760079         1.103555        -2.117726
 H         3.313053        -0.748072        -2.055485
 H         2.462193         1.099371         1.574240
