19
Iteration:  1704charge 0 multiplicity 1
 C         0.016016         0.453456         0.267547
 C         1.427159        -0.255792        -0.132835
 C         1.863085        -1.720497         0.025492
 C         3.302104        -1.142287         0.569087
 O         4.158077        -1.713114         1.414384
 C         3.829497         0.082097        -0.116817
 C         3.182756         0.513584        -1.466273
 O         1.816654         0.101439        -1.443987
 C         2.576059         0.139706         0.805569
 H        -0.150939         0.259525         1.369088
 H         0.229394         1.543318         0.165532
 H        -0.865990         0.117768        -0.239152
 H         1.267451        -2.259602         0.862428
 H         1.702858        -2.226598        -0.981674
 H         3.866744        -1.779785         2.328598
 H         4.865403         0.499890         0.183609
 H         3.163277         1.609940        -1.635608
 H         3.681361         0.021490        -2.361393
 H         2.432929         0.890386         1.716140
