19
Iteration:  4278charge 0 multiplicity 1
 C        -0.040122         0.245926         0.220579
 C         1.485210        -0.125039        -0.060128
 C         1.959336        -1.642723         0.072299
 C         3.237015        -1.075426         0.640914
 O         3.980962        -2.011600         1.410723
 C         3.755296         0.081901        -0.173049
 C         3.209798         0.462450        -1.507834
 O         1.791219         0.295494        -1.434200
 C         2.707917         0.376733         0.865494
 H        -0.040694         0.005150         1.299518
 H        -0.244016         1.344084        -0.145092
 H        -0.791834        -0.483192        -0.287926
 H         1.443876        -2.285873         0.762864
 H         2.043092        -2.222712        -0.808286
 H         4.930068        -1.799366         1.375798
 H         4.734350         0.404546         0.142483
 H         3.569422         1.432157        -1.713710
 H         3.598464        -0.213212        -2.277756
 H         2.761500         1.131021         1.693330
