19
Iteration:  2554charge 0 multiplicity 1
 C        -0.075533         0.064996         0.259861
 C         1.408252        -0.024880        -0.108552
 C         1.980769        -1.643382         0.032907
 C         3.242059        -1.063857         0.668190
 O         4.156088        -1.912756         1.344730
 C         3.745531         0.156314        -0.177489
 C         3.206512         0.182107        -1.537470
 O         1.863407         0.502691        -1.348415
 C         2.612452         0.389756         0.844524
 H        -0.319388        -0.230197         1.256222
 H        -0.431583         1.069133         0.179671
 H        -0.682522        -0.559198        -0.425164
 H         1.395030        -2.156608         0.862485
 H         2.079429        -2.274246        -0.874926
 H         3.687266        -1.945743         2.201733
 H         4.815689         0.371284         0.134794
 H         3.819125         0.895802        -2.131271
 H         3.449116        -0.726546        -2.157883
 H         2.582946         1.142216         1.590641
