19
Iteration:  4733
 C         0.120732         0.185535         0.409254
 C         1.518966        -0.142830        -0.144488
 C         1.914372        -1.619068        -0.064066
 C         3.270072        -1.118927         0.582232
 O         3.918609        -1.841069         1.542742
 C         3.822817         0.046568        -0.204258
 C         3.201027         0.392129        -1.591735
 O         1.770115         0.370940        -1.417355
 C         2.729294         0.283925         0.822481
 H        -0.003508        -0.055970         1.433467
 H        -0.216808         1.207811         0.184427
 H        -0.680112        -0.488691        -0.004039
 H         1.359696        -2.184911         0.645628
 H         1.961284        -2.070942        -1.044927
 H         3.230642        -2.006167         2.201313
 H         4.827888         0.343415        -0.026520
 H         3.581090         1.429176        -1.868328
 H         3.394941        -0.214213        -2.536914
 H         2.741960         0.981641         1.659510
