19
Iteration:  2262
 C         0.057680         0.188303         0.071358
 C         1.468454        -0.165860        -0.012115
 C         1.913443        -1.627163         0.192300
 C         3.232961        -1.115015         0.705683
 O         4.174925        -1.839058         1.316762
 C         3.680819         0.065613        -0.165182
 C         3.182244         0.309554        -1.523351
 O         1.817082         0.464936        -1.309039
 C         2.577890         0.297868         0.899037
 H        -0.477005         0.207276         1.020943
 H        -0.000910         1.193791        -0.350915
 H        -0.510640        -0.311660        -0.619985
 H         1.264072        -2.220590         0.813646
 H         1.882116        -2.184456        -0.841346
 H         4.760711        -2.291807         0.684170
 H         4.715320         0.384963         0.013998
 H         3.583043         1.192607        -1.969592
 H         3.232982        -0.569618        -2.261761
 H         2.459808         0.898838         1.752519
