19
Iteration:   711
 C         0.009624         0.102033         0.090738
 C         1.482377        -0.076478        -0.135089
 C         1.938929        -1.605189         0.067909
 C         3.227824        -1.056228         0.683967
 O         4.213987        -1.830237         1.307843
 C         3.812933         0.083055        -0.056612
 C         3.147951         0.198313        -1.456546
 O         1.779992         0.511751        -1.377680
 C         2.549447         0.370559         0.906512
 H        -0.339516        -0.705766         0.769562
 H        -0.479187         0.852244         0.701940
 H        -0.530720        -0.042617        -0.765474
 H         1.168351        -2.082505         0.822511
 H         2.156130        -2.342827        -0.835977
 H         3.781307        -2.536632         1.847226
 H         4.822651         0.435082         0.274004
 H         3.736845         0.798577        -2.229044
 H         3.258182        -0.871088        -2.008075
 H         2.641703         1.163855         1.692747
