19
Iteration:  4605
 C         0.039628         0.152093         0.174753
 C         1.455806        -0.135255        -0.107565
 C         1.891696        -1.576646         0.104660
 C         3.196289        -1.134476         0.724730
 O         4.102397        -1.987245         1.394470
 C         3.725202         0.072268        -0.117694
 C         3.217263         0.282236        -1.549319
 O         1.852827         0.503247        -1.343106
 C         2.610729         0.389103         0.812709
 H        -0.230326         0.049552         1.195339
 H        -0.223993         1.205661         0.051263
 H        -0.690098        -0.412625        -0.463384
 H         1.124124        -2.282317         0.633583
 H         2.058220        -2.204134        -0.821679
 H         4.888525        -1.817274         0.819805
 H         4.668005         0.552159         0.200280
 H         3.490425         1.175681        -2.008284
 H         3.462491        -0.546322        -2.154751
 H         2.670464         1.178864         1.591729
