19
Iteration:  2126charge 0 multiplicity 1
 C         0.137442         0.086596         0.244287
 C         1.551698        -0.098274        -0.078322
 C         1.935040        -1.621876         0.026932
 C         3.206248        -1.081787         0.662036
 O         3.986455        -1.862316         1.504304
 C         3.727344         0.160965        -0.161603
 C         3.151312         0.345098        -1.530940
 O         1.761284         0.448348        -1.421265
 C         2.679180         0.260298         0.841000
 H         0.182369        -0.317487         1.274708
 H        -0.005138         1.169514         0.120484
 H        -0.519515        -0.495335        -0.450575
 H         1.139812        -2.127915         0.676481
 H         1.934986        -2.115017        -1.008746
 H         4.429569        -2.563701         1.011239
 H         4.817737         0.353733         0.034598
 H         3.507769         1.317398        -1.958641
 H         3.378634        -0.515379        -2.240253
 H         2.646410         1.061599         1.545171
