19
Iteration:  2955
 C        -0.032276         0.227516         0.194664
 C         1.444332        -0.116883        -0.023059
 C         1.958955        -1.678412         0.071756
 C         3.216419        -1.078007         0.641089
 O         4.164482        -1.963735         1.278005
 C         3.725653         0.126707        -0.126353
 C         3.238230         0.430404        -1.422417
 O         1.807327         0.283355        -1.373340
 C         2.604366         0.319300         0.791857
 H        -0.380897        -0.225289         1.091049
 H        -0.258952         1.246904         0.198838
 H        -0.555111         0.028256        -0.752977
 H         1.259128        -2.169021         0.818766
 H         2.023120        -2.274532        -0.920955
 H         4.285812        -1.588763         2.167452
 H         4.648129         0.561817         0.239814
 H         3.579574         1.438455        -1.872641
 H         3.626957        -0.302839        -2.192459
 H         2.499656         1.141074         1.579617
