19
Iteration:   484charge 0 multiplicity 1
 C         0.142844         0.179697         0.284804
 C         1.513083        -0.194078        -0.123981
 C         1.906770        -1.727087         0.006287
 C         3.225624        -1.200415         0.648387
 O         4.006686        -1.892367         1.564378
 C         3.798314         0.198466        -0.155621
 C         3.189095         0.629000        -1.550519
 O         1.750151         0.217234        -1.540194
 C         2.616691         0.269435         0.842703
 H        -0.216677        -0.136666         1.350049
 H         0.180806         1.337702         0.215424
 H        -0.717636        -0.115101        -0.316394
 H         1.268106        -2.235180         0.618624
 H         2.029566        -2.167981        -0.934610
 H         4.484804        -1.365074         2.221234
 H         4.816278         0.512745         0.094119
 H         3.308645         1.666539        -1.816343
 H         3.658646         0.037534        -2.378451
 H         2.506135         1.139191         1.496678
