19
Iteration:   572
 C        -0.062199         0.118778         0.155481
 C         1.401959        -0.150230        -0.058945
 C         2.062566        -1.611154        -0.009837
 C         3.243311        -1.083800         0.687378
 O         4.189306        -1.878686         1.333552
 C         3.737511         0.160342        -0.058453
 C         3.221742         0.145018        -1.435340
 O         1.806793         0.500396        -1.398129
 C         2.535168         0.453175         0.860202
 H        -0.399626        -0.146728         1.221551
 H        -0.088946         1.255732         0.029199
 H        -0.614478        -0.448211        -0.656369
 H         1.572097        -2.180200         0.682602
 H         2.064901        -2.105141        -0.938858
 H         3.787536        -2.730160         1.553288
 H         4.660552         0.687891         0.137892
 H         3.778449         0.713294        -2.114689
 H         3.271191        -0.784482        -1.868718
 H         2.496285         1.164178         1.668082
