19
Iteration:  4696charge 0 multiplicity 1
 C         0.154687         0.273456         0.444848
 C         1.467255        -0.205499        -0.224951
 C         1.937044        -1.679216        -0.084421
 C         3.199160        -1.161800         0.546084
 O         3.999175        -1.811288         1.579861
 C         3.804100        -0.007513        -0.176969
 C         3.225585         0.425528        -1.533278
 O         1.770175         0.390227        -1.476335
 C         2.596958         0.195968         0.787727
 H         0.317338        -0.036676         1.512769
 H         0.196876         1.361916         0.614466
 H        -0.654880        -0.042673        -0.088074
 H         1.220492        -2.268022         0.637929
 H         1.882676        -2.348909        -1.100399
 H         3.911749        -1.181279         2.311139
 H         4.831519         0.373865         0.085602
 H         3.368111         1.520785        -1.454487
 H         3.600479        -0.030507        -2.418713
 H         2.536652         1.035006         1.490742
