19
Iteration:  2724
 C        -0.080637         0.126684         0.299335
 C         1.456812        -0.111913        -0.100865
 C         1.978667        -1.688982        -0.057281
 C         3.219741        -1.058735         0.700949
 O         4.157505        -1.797276         1.481862
 C         3.816779         0.041477        -0.201414
 C         3.189950         0.251338        -1.566348
 O         1.778203         0.536831        -1.355464
 C         2.663130         0.311998         0.797596
 H        -0.102910        -0.189762         1.328855
 H        -0.531529         1.087141         0.124688
 H        -0.666968        -0.453688        -0.432363
 H         1.506100        -2.399654         0.550734
 H         2.122641        -2.276643        -0.955607
 H         3.598015        -2.303843         2.110597
 H         4.806790         0.292679         0.030987
 H         3.663297         1.143818        -2.068224
 H         3.203304        -0.596702        -2.301739
 H         2.644015         1.161928         1.494237
