19
Iteration:  1657
 C        -0.037347         0.098492         0.207694
 C         1.433124        -0.064735        -0.105937
 C         1.955256        -1.548320         0.097764
 C         3.234066        -1.011737         0.688676
 O         4.136019        -1.898998         1.416713
 C         3.801573         0.069604        -0.181995
 C         3.229124         0.201980        -1.525521
 O         1.756037         0.435682        -1.385700
 C         2.650764         0.387567         0.787039
 H        -0.237552        -0.392017         1.209757
 H        -0.269715         1.180883         0.323428
 H        -0.451419        -0.613352        -0.514108
 H         1.434968        -2.144585         0.918265
 H         2.142965        -2.162278        -0.810677
 H         3.610951        -2.642303         1.772450
 H         4.695400         0.546262         0.048896
 H         3.625587         1.217137        -1.951789
 H         3.414682        -0.609435        -2.215038
 H         2.706203         1.195305         1.474149
