19
Iteration:  3570charge 0 multiplicity 1
 C        -0.036089         0.231106         0.089349
 C         1.467814        -0.179102        -0.104156
 C         1.934165        -1.604799         0.051178
 C         3.295990        -1.126360         0.605066
 O         4.138600        -1.865620         1.381359
 C         3.718874         0.125267        -0.086188
 C         3.155422         0.319560        -1.504444
 O         1.797828         0.469233        -1.324762
 C         2.631740         0.211002         0.928780
 H        -0.379268        -0.209378         1.026440
 H        -0.188563         1.275664         0.333440
 H        -0.641902        -0.233987        -0.654819
 H         1.184870        -2.035151         0.811090
 H         1.832349        -2.317029        -0.896250
 H         5.029396        -2.038731         1.037725
 H         4.771768         0.580559         0.074433
 H         3.682383         1.188554        -1.942509
 H         3.293630        -0.625114        -1.917194
 H         2.558532         0.788860         1.835494
