19
Iteration:  1870charge 0 multiplicity 1
 C         0.119675         0.315064         0.280736
 C         1.449308        -0.255243        -0.069211
 C         1.910343        -1.688923         0.131690
 C         3.185207        -1.053481         0.608790
 O         4.050750        -1.880556         1.383275
 C         3.695429         0.078004        -0.189488
 C         3.180790         0.620635        -1.533523
 O         1.862008         0.120528        -1.491818
 C         2.677635         0.271876         0.842917
 H        -0.254917         0.047051         1.211878
 H         0.137598         1.325791         0.138955
 H        -0.664394         0.042928        -0.389931
 H         1.472276        -2.359350         0.883768
 H         2.047630        -2.234438        -0.802066
 H         3.956223        -1.555826         2.288285
 H         4.686006         0.329334         0.106283
 H         3.273759         1.727923        -1.515793
 H         3.648045         0.285396        -2.465094
 H         2.615273         0.828666         1.772710
