19
Iteration:  1594charge 0 multiplicity 1
 C         0.020518         0.231897         0.258173
 C         1.423120        -0.180873        -0.060347
 C         1.950681        -1.673749         0.031731
 C         3.281597        -1.120190         0.670819
 O         4.143602        -1.831111         1.493850
 C         3.790343         0.113450        -0.207468
 C         3.194639         0.300803        -1.599885
 O         1.766623         0.435264        -1.428508
 C         2.584184         0.257953         0.821537
 H        -0.347087        -0.037244         1.264809
 H        -0.040694         1.305069         0.034917
 H        -0.750474        -0.160289        -0.381340
 H         1.587499        -2.505140         0.719200
 H         2.051082        -2.169631        -0.955524
 H         3.736291        -1.701075         2.378965
 H         4.790601         0.264313         0.036953
 H         3.425998         1.308045        -1.957075
 H         3.604356        -0.460741        -2.316219
 H         2.582051         1.086982         1.519193
