19
Iteration:  1324
 C        -0.110284         0.084538         0.073920
 C         1.432288        -0.065006         0.002207
 C         2.042156        -1.532243         0.143165
 C         3.259013        -1.041503         0.746931
 O         4.160943        -1.892893         1.284507
 C         3.704901         0.085527        -0.169320
 C         3.215811         0.175407        -1.527801
 O         1.810043         0.488457        -1.343257
 C         2.660714         0.353039         0.882444
 H        -0.543661         0.186153         0.971334
 H        -0.318185         0.982951        -0.457933
 H        -0.615046        -0.521917        -0.595271
 H         1.313091        -2.068487         0.821842
 H         2.159618        -2.226679        -0.780126
 H         3.692599        -2.534330         1.829249
 H         4.763522         0.479731         0.003486
 H         3.721639         1.013745        -2.059871
 H         3.269392        -0.680319        -2.110725
 H         2.714532         0.881132         1.867693
