19
Iteration:   326
 C         0.020875         0.286437         0.363891
 C         1.472316        -0.211179        -0.148967
 C         2.013596        -1.709703        -0.045904
 C         3.289975        -1.142682         0.598220
 O         3.977696        -1.798330         1.581371
 C         3.752006         0.110887        -0.134258
 C         3.260281         0.464961        -1.494443
 O         1.787466         0.313602        -1.556781
 C         2.541350         0.186118         0.826042
 H        -0.105058        -0.087229         1.403356
 H        -0.025960         1.404737         0.366063
 H        -0.884592        -0.198844        -0.243006
 H         1.424999        -2.332228         0.574113
 H         2.064913        -2.262076        -0.957884
 H         4.923829        -1.768933         1.425155
 H         4.646323         0.609011         0.227473
 H         3.480503         1.557375        -1.727179
 H         3.717094        -0.171879        -2.275478
 H         2.445230         0.929295         1.602075
