19
Iteration:  3249
 C         0.085780         0.042316         0.327943
 C         1.498023        -0.194852        -0.063635
 C         1.976189        -1.688760        -0.159303
 C         3.199029        -1.099841         0.578289
 O         3.931120        -1.737305         1.632320
 C         3.780910         0.022083        -0.243136
 C         3.191750         0.381836        -1.545594
 O         1.782317         0.582272        -1.275137
 C         2.669667         0.252491         0.764322
 H        -0.344383        -0.779353         0.951768
 H         0.025902         1.068267         0.643565
 H        -0.592294        -0.245983        -0.555542
 H         1.361062        -2.348112         0.337847
 H         2.154894        -2.178286        -1.118881
 H         4.635657        -2.178061         1.120083
 H         4.759464         0.422750         0.186376
 H         3.707106         1.372548        -1.925846
 H         3.379425        -0.402398        -2.426048
 H         2.814375         0.926635         1.544668
