19
Iteration:  4906
 C         0.133529         0.159284         0.302782
 C         1.483529        -0.080552        -0.130319
 C         2.009942        -1.621396        -0.034778
 C         3.176374        -1.073710         0.729243
 O         4.095696        -1.875230         1.497481
 C         3.759564        -0.013499        -0.121616
 C         3.113020         0.180706        -1.670981
 O         1.822859         0.550819        -1.403058
 C         2.614280         0.344938         0.824424
 H        -0.004513         0.006419         1.364021
 H        -0.203970         1.215085         0.225641
 H        -0.638662        -0.412939        -0.286260
 H         1.255591        -2.071723         0.592140
 H         2.099604        -2.106455        -0.921440
 H         3.520510        -2.379022         2.117487
 H         4.717999         0.424106         0.105856
 H         3.575100         0.979848        -2.289476
 H         3.060765        -0.718454        -2.271537
 H         2.586871         1.258935         1.434149
