19
Iteration:  1950
 C        -0.066574         0.143105         0.128759
 C         1.506248        -0.086073        -0.031487
 C         1.947456        -1.565970        -0.036716
 C         3.284848        -1.138835         0.645264
 O         4.225061        -1.803570         1.538356
 C         3.736403         0.055068        -0.177024
 C         3.104587         0.179571        -1.571462
 O         1.769588         0.553958        -1.356515
 C         2.660643         0.285929         0.882136
 H        -0.286679         0.023726         1.228476
 H        -0.120251         1.275150         0.117100
 H        -0.658511        -0.458803        -0.555931
 H         1.336319        -2.112063         0.781128
 H         2.047156        -2.120456        -1.061222
 H         3.923843        -2.716058         1.420768
 H         4.768455         0.368873        -0.019076
 H         3.579458         0.930465        -2.161297
 H         3.040559        -0.877883        -2.086842
 H         2.520809         0.969318         1.726302
