19
Iteration:  4062
 C         0.017908         0.276061         0.232046
 C         1.465714        -0.136750        -0.059570
 C         1.830656        -1.618597         0.106553
 C         3.217532        -1.121502         0.697485
 O         4.118062        -1.864769         1.391460
 C         3.747612         0.052275        -0.165751
 C         3.261672         0.519184        -1.513748
 O         1.839844         0.204332        -1.442612
 C         2.626477         0.276490         0.854699
 H        -0.396992        -0.306224         1.106267
 H        -0.136718         1.268848         0.571503
 H        -0.563091        -0.031755        -0.613937
 H         1.228911        -2.187096         0.787345
 H         1.809864        -2.266314        -0.862231
 H         4.484188        -2.426414         0.681033
 H         4.655616         0.447473         0.137034
 H         3.401435         1.596198        -1.570394
 H         3.702511         0.181741        -2.493475
 H         2.620666         1.066002         1.623935
