19
Iteration:  4558
 C         0.199236         0.283142         0.395685
 C         1.463924        -0.247656        -0.093013
 C         1.860223        -1.751213        -0.148922
 C         3.278709        -1.210968         0.514651
 O         3.915127        -1.725714         1.680298
 C         3.854133         0.192320        -0.248086
 C         3.232101         0.549437        -1.555234
 O         1.784815         0.308954        -1.390340
 C         2.667762         0.137613         0.767458
 H        -0.075575         0.136320         1.481980
 H        -0.001684         1.376332         0.222931
 H        -0.759967        -0.174830        -0.178979
 H         1.310123        -2.435933         0.494547
 H         1.579311        -2.125023        -1.094081
 H         4.041066        -2.659857         1.465914
 H         4.784509         0.595650         0.226300
 H         3.430653         1.570664        -1.714852
 H         3.526366        -0.045957        -2.384010
 H         2.436734         0.746241         1.619319
