19
Iteration:  4283charge 0 multiplicity 1
 C         0.002866         0.209144         0.186569
 C         1.495856        -0.094240        -0.025647
 C         1.965737        -1.618076         0.093958
 C         3.243699        -1.089075         0.654136
 O         3.978068        -2.017076         1.380587
 C         3.736810         0.050412        -0.138996
 C         3.176516         0.427922        -1.532976
 O         1.798170         0.319682        -1.413846
 C         2.695132         0.417865         0.842416
 H        -0.199680         0.011325         1.253831
 H        -0.237127         1.149368        -0.150917
 H        -0.730330        -0.373499        -0.267240
 H         1.467644        -2.373392         0.773241
 H         2.095788        -2.101984        -0.960473
 H         4.919699        -1.784094         1.402689
 H         4.771129         0.391835         0.173232
 H         3.559350         1.532049        -1.658708
 H         3.546690        -0.361700        -2.219082
 H         2.720878         1.162449         1.597455
