19
Iteration:   577charge 0 multiplicity 1
 C        -0.083766         0.102991         0.145120
 C         1.497841        -0.113863        -0.033230
 C         2.020557        -1.643897        -0.035368
 C         3.239689        -1.049398         0.676084
 O         4.185098        -1.907548         1.332696
 C         3.727738         0.177329        -0.072666
 C         3.211152         0.180191        -1.441870
 O         1.830130         0.462178        -1.342720
 C         2.538521         0.478297         0.831019
 H        -0.412875        -0.049468         1.139231
 H        -0.080351         1.143794        -0.082546
 H        -0.734270        -0.488329        -0.520203
 H         1.440227        -2.268348         0.781130
 H         2.211758        -2.189531        -1.027857
 H         3.662964        -2.664862         1.701773
 H         4.667311         0.696248         0.200008
 H         3.649603         0.881604        -2.235318
 H         3.272502        -0.922240        -1.955221
 H         2.408365         1.166215         1.697803
