19
Iteration:  1473charge 0 multiplicity 1
 C         0.000946         0.098492         0.225037
 C         1.429822        -0.067709        -0.113745
 C         1.968340        -1.580863        -0.006385
 C         3.217834        -1.093433         0.690047
 O         4.173721        -1.873296         1.377164
 C         3.772288         0.156061        -0.092952
 C         3.196862         0.075232        -1.506555
 O         1.791405         0.552898        -1.458946
 C         2.627994         0.361703         0.867479
 H        -0.369489        -0.109441         1.242682
 H        -0.314072         1.167114         0.130696
 H        -0.657021        -0.561372        -0.338553
 H         1.299765        -2.135086         0.667824
 H         1.971847        -2.086728        -0.966941
 H         3.861190        -1.953716         2.287896
 H         4.778674         0.561613         0.165189
 H         3.740500         0.711317        -2.149916
 H         3.199872        -0.957417        -1.956545
 H         2.626230         0.855764         1.828955
