19
Iteration:  4565
 C         0.099068         0.283866         0.362692
 C         1.453088        -0.192506        -0.071092
 C         1.860690        -1.705067        -0.128882
 C         3.258984        -1.193540         0.522543
 O         3.942072        -1.739319         1.642410
 C         3.826929         0.194382        -0.183374
 C         3.196185         0.488481        -1.567234
 O         1.821058         0.314260        -1.408873
 C         2.691163         0.116571         0.782153
 H         0.099845         0.020188         1.488450
 H         0.098240         1.343425         0.003524
 H        -0.775103        -0.161480        -0.000204
 H         1.336355        -2.398152         0.516531
 H         1.814480        -2.115287        -1.199883
 H         4.272449        -2.634488         1.509293
 H         4.738395         0.552994         0.134987
 H         3.542726         1.629657        -1.698537
 H         3.555776        -0.163128        -2.494250
 H         2.610851         0.570801         1.770594
