19
Iteration:  3023charge 0 multiplicity 1
 C        -0.109836         0.129548         0.271176
 C         1.437606        -0.156331        -0.125863
 C         2.028723        -1.589130        -0.057775
 C         3.264794        -1.124246         0.625459
 O         4.069943        -1.912639         1.498961
 C         3.745458         0.027925        -0.206383
 C         3.196933         0.376617        -1.546790
 O         1.824337         0.517917        -1.327421
 C         2.660875         0.230152         0.858023
 H        -0.364819        -0.067287         1.312847
 H        -0.285173         1.098445        -0.061967
 H        -0.786203        -0.384226        -0.432241
 H         1.489604        -2.261449         0.717396
 H         2.257851        -2.093789        -1.038757
 H         4.422563        -1.339090         2.210794
 H         4.728857         0.346430        -0.124039
 H         3.694219         1.284677        -1.991222
 H         3.321113        -0.245973        -2.418382
 H         2.659318         0.988848         1.636152
