19
Iteration:  3208
 C         0.070009         0.208212         0.422122
 C         1.460790        -0.219542        -0.110270
 C         1.972256        -1.701112        -0.129096
 C         3.275533        -1.099729         0.563927
 O         4.000842        -1.857920         1.558853
 C         3.731327         0.202740        -0.100738
 C         3.243750         0.515877        -1.538476
 O         1.793191         0.362291        -1.504268
 C         2.607285         0.195416         0.848668
 H        -0.053521        -0.167883         1.460654
 H        -0.102586         1.270131         0.270709
 H        -0.776272        -0.284627        -0.190286
 H         1.375595        -2.255250         0.642618
 H         2.070676        -2.174525        -1.115758
 H         4.158794        -2.795335         1.327666
 H         4.682721         0.857405         0.196439
 H         3.469888         1.394175        -2.074787
 H         3.732404        -0.099860        -2.280661
 H         2.545553         0.713573         1.782594
