19
Iteration:   625charge 0 multiplicity 1
 C        -0.020470         0.188654         0.233553
 C         1.469095        -0.187929        -0.144807
 C         1.876511        -1.695729         0.054894
 C         3.230566        -1.231612         0.550039
 O         4.139330        -1.797413         1.518395
 C         3.785719         0.051714        -0.160114
 C         3.253079         0.579926        -1.476815
 O         1.818882         0.342075        -1.429016
 C         2.626571         0.257132         0.754105
 H        -0.123911         0.088794         1.353374
 H        -0.401706         1.102177        -0.275811
 H        -0.524183        -0.700998        -0.049335
 H         1.297691        -2.122952         0.882135
 H         1.852757        -2.289813        -0.903796
 H         3.721578        -1.665786         2.379198
 H         4.812372         0.190299         0.161604
 H         3.322001         1.693589        -1.462367
 H         3.599760         0.253828        -2.493495
 H         2.607646         0.933872         1.606553
