19
Iteration:   827
 C         0.076171         0.170232         0.299493
 C         1.497643        -0.133348        -0.070549
 C         1.934119        -1.667775        -0.005211
 C         3.210098        -1.105802         0.640837
 O         4.063385        -1.780508         1.431183
 C         3.714550         0.154441        -0.126924
 C         3.260036         0.440569        -1.557415
 O         1.793310         0.277520        -1.465439
 C         2.631074         0.260217         0.828000
 H        -0.037431        -0.184823         1.387797
 H        -0.170415         1.279876         0.405661
 H        -0.463592        -0.603081        -0.414623
 H         1.293018        -2.050207         0.764216
 H         1.993565        -2.298229        -0.868103
 H         3.581015        -2.486162         1.906988
 H         4.716725         0.552230         0.176008
 H         3.487889         1.513800        -1.920655
 H         3.604142        -0.353859        -2.298526
 H         2.547666         1.006434         1.669879
