19
Iteration:   835
 C         0.053607         0.129371         0.220907
 C         1.483598        -0.111766        -0.134278
 C         1.942913        -1.633072         0.075187
 C         3.233983        -1.096766         0.649622
 O         4.140790        -1.840420         1.455402
 C         3.706599         0.149108        -0.180669
 C         3.257369         0.415105        -1.518830
 O         1.744831         0.342435        -1.413098
 C         2.665695         0.260028         0.853629
 H        -0.286417        -0.303777         1.101703
 H        -0.246890         1.140522         0.191446
 H        -0.616599        -0.257243        -0.542993
 H         1.207836        -2.054724         0.806284
 H         2.008672        -2.201891        -0.909748
 H         3.467000        -2.409180         1.900216
 H         4.673977         0.581060         0.026920
 H         3.433276         1.356882        -1.975035
 H         3.441992        -0.437561        -2.179362
 H         2.771417         0.960214         1.682327
