19
Iteration:  3382charge 0 multiplicity 1
 C         0.096081         0.151891         0.240922
 C         1.494435        -0.142184        -0.096712
 C         1.970981        -1.652742        -0.015268
 C         3.228346        -1.137530         0.616918
 O         3.990977        -1.871755         1.542054
 C         3.758553        -0.013364        -0.157505
 C         3.171146         0.597113        -1.514564
 O         1.745932         0.304486        -1.425899
 C         2.668752         0.318850         0.833277
 H        -0.175522        -0.053275         1.297393
 H        -0.065395         1.255575         0.218703
 H        -0.580033        -0.347368        -0.545460
 H         1.430231        -2.195580         0.742927
 H         2.069477        -2.236111        -0.989827
 H         4.759183        -2.224302         1.051389
 H         4.785193         0.219446        -0.011053
 H         3.131096         1.704252        -1.392547
 H         3.604188         0.115014        -2.355327
 H         2.725750         1.116941         1.610383
