19
Iteration:   378charge 0 multiplicity 1
 C        -0.012253         0.115364         0.217881
 C         1.501287        -0.145012        -0.135512
 C         1.984870        -1.611867        -0.006610
 C         3.322072        -1.147264         0.598298
 O         4.059390        -1.794856         1.656564
 C         3.748643         0.100599        -0.186118
 C         3.206507         0.441074        -1.594453
 O         1.764846         0.393173        -1.467113
 C         2.610620         0.307316         0.855985
 H        -0.242957        -0.583554         1.003385
 H        -0.291561         1.058736         0.603946
 H        -0.668143        -0.101972        -0.643867
 H         1.482612        -2.163507         0.930413
 H         1.914426        -2.336805        -0.881333
 H         4.115101        -2.714874         1.374800
 H         4.706534         0.390268         0.246687
 H         3.525309         1.479915        -1.844143
 H         3.475480        -0.308461        -2.300398
 H         2.597565         0.743149         1.851570
