19
Iteration:  3210charge 0 multiplicity 1
 C         0.074635         0.202153         0.421714
 C         1.450090        -0.229149        -0.113625
 C         1.975337        -1.699939        -0.141304
 C         3.282812        -1.100110         0.574271
 O         4.005777        -1.860280         1.577694
 C         3.710811         0.198851        -0.109971
 C         3.236092         0.509400        -1.536060
 O         1.781938         0.379605        -1.519068
 C         2.619390         0.201060         0.843807
 H         0.007305        -0.166464         1.443144
 H        -0.138561         1.300156         0.325360
 H        -0.735306        -0.220127        -0.191772
 H         1.325610        -2.305363         0.662369
 H         2.150508        -2.186962        -1.154240
 H         4.157210        -2.787918         1.343830
 H         4.697936         0.790477         0.180681
 H         3.500703         1.473657        -2.054468
 H         3.768439        -0.147613        -2.246649
 H         2.610108         0.704102         1.853010
