19
Iteration:  3637charge 0 multiplicity 1
 C         0.130011         0.072079         0.481706
 C         1.504106        -0.136880        -0.109403
 C         2.027657        -1.688309        -0.189649
 C         3.275539        -1.176929         0.544284
 O         3.853277        -1.772220         1.676849
 C         3.812862         0.101916        -0.192938
 C         3.212111         0.487901        -1.569915
 O         1.723610         0.492782        -1.468683
 C         2.684706         0.170082         0.777594
 H         0.035144        -0.275792         1.503739
 H         0.083911         1.104995         0.752825
 H        -0.654569        -0.118769        -0.187826
 H         1.332356        -2.458746         0.388812
 H         2.248538        -1.990834        -1.282375
 H         4.015505        -2.716934         1.485200
 H         4.703206         0.566081         0.103088
 H         3.384067         1.501493        -1.901810
 H         3.442361        -0.298532        -2.245763
 H         2.551079         0.954347         1.520945
