19
Iteration:  1895charge 0 multiplicity 1
 C         0.056142         0.294011         0.242244
 C         1.446304        -0.108828        -0.139974
 C         1.860674        -1.594790         0.170942
 C         3.256968        -1.083921         0.626244
 O         4.217577        -2.018955         1.295385
 C         3.716741         0.178159        -0.023081
 C         3.260292         0.453720        -1.459432
 O         1.757022         0.133090        -1.501370
 C         2.610187         0.335665         0.769893
 H        -0.329634        -0.183317         1.179080
 H        -0.186901         1.408419         0.073019
 H        -0.748243        -0.033687        -0.473600
 H         1.247923        -1.959630         1.108264
 H         1.856977        -2.476836        -0.614128
 H         4.097223        -1.878040         2.254740
 H         4.653091         0.703068         0.307154
 H         3.342899         1.523842        -1.544571
 H         3.755482        -0.052075        -2.415358
 H         2.379073         1.165788         1.531683
