19
Iteration:  1299
 C         0.052539         0.093919         0.189527
 C         1.488822        -0.098607        -0.127211
 C         1.938892        -1.605436         0.002087
 C         3.272874        -1.122204         0.624128
 O         4.095093        -1.851228         1.505523
 C         3.771089         0.074252        -0.165187
 C         3.132738         0.376059        -1.542472
 O         1.800669         0.431736        -1.341700
 C         2.651289         0.299792         0.797537
 H         0.122158         0.087004         1.308972
 H        -0.492266         0.959479        -0.209056
 H        -0.612549        -0.630824        -0.265989
 H         1.365134        -2.136967         0.755807
 H         1.811798        -2.164106        -0.924941
 H         3.534342        -2.169922         2.237450
 H         4.701857         0.466277         0.186446
 H         3.647684         1.245954        -2.037838
 H         3.188436        -0.449775        -2.232659
 H         2.849949         1.044120         1.584837
