19
Iteration:  3871
 C         0.004691         0.184403         0.138414
 C         1.440635        -0.133320        -0.035847
 C         1.875624        -1.653157         0.068858
 C         3.209352        -1.144354         0.679904
 O         4.151943        -1.845281         1.300782
 C         3.740091         0.159727        -0.086700
 C         3.270883         0.261054        -1.556973
 O         1.816557         0.536446        -1.288345
 C         2.586967         0.252000         0.869082
 H        -0.331743        -0.140633         1.024997
 H        -0.199003         1.235671         0.187784
 H        -0.420115        -0.272613        -0.732182
 H         1.282234        -2.186208         0.886580
 H         1.944540        -2.370755        -0.844862
 H         4.518693        -2.444618         0.630452
 H         4.600064         0.574806         0.352348
 H         3.712357         1.090714        -2.072952
 H         3.367481        -0.761992        -1.964178
 H         2.632325         0.859765         1.783139
