19
Iteration:   292charge 0 multiplicity 1
 C        -0.062878         0.143672         0.074169
 C         1.503578        -0.140503         0.001420
 C         1.943227        -1.692305         0.062130
 C         3.252419        -1.076020         0.652424
 O         4.054306        -1.907538         1.420313
 C         3.726960         0.118658        -0.143907
 C         3.212061         0.334378        -1.569875
 O         1.848648         0.467654        -1.298845
 C         2.625420         0.318028         0.887839
 H        -0.499344         0.097869         1.115506
 H        -0.421790         1.084169        -0.395259
 H        -0.540842        -0.762189        -0.571843
 H         1.351803        -2.171788         0.866083
 H         2.132287        -2.068800        -0.908014
 H         4.983316        -1.649283         1.443046
 H         4.814158         0.325572         0.042196
 H         3.654660         1.251539        -2.137126
 H         3.454000        -0.558228        -2.187091
 H         2.354613         1.167482         1.593958
