19
Iteration:  4412charge 0 multiplicity 1
 C         0.164168         0.178014         0.343669
 C         1.514196        -0.165528        -0.105906
 C         1.851579        -1.678378         0.091104
 C         3.208112        -1.098158         0.466107
 O         3.876304        -1.913675         1.477785
 C         3.800652         0.152923        -0.167364
 C         3.239591         0.539682        -1.538649
 O         1.832643         0.227159        -1.458499
 C         2.638088         0.305171         0.819145
 H        -0.100346         0.185864         1.477116
 H        -0.151453         1.299518         0.278463
 H        -0.578464        -0.414144        -0.198796
 H         1.392554        -2.040579         0.972753
 H         1.626825        -2.269688        -0.784927
 H         4.805148        -1.571374         1.493535
 H         4.906979         0.364925         0.103090
 H         3.425839         1.520673        -1.735923
 H         3.796209         0.003195        -2.251519
 H         2.669996         0.838112         1.798047
