19
Iteration:  3833
 C         0.000525         0.095774         0.388102
 C         1.485084        -0.050390        -0.060294
 C         2.012323        -1.608485        -0.083293
 C         3.267867        -1.110298         0.587907
 O         3.916596        -1.950624         1.567376
 C         3.798402         0.061654        -0.193358
 C         3.262590         0.373104        -1.572568
 O         1.737644         0.504482        -1.416471
 C         2.671429         0.247089         0.811014
 H        -0.282644        -0.289667         1.463563
 H        -0.324775         1.151923         0.203752
 H        -0.601429        -0.614237        -0.236724
 H         1.373691        -2.349930         0.392179
 H         2.180440        -1.933508        -1.101823
 H         4.845724        -2.091334         1.305243
 H         4.605466         0.703749         0.205742
 H         3.477721         1.419519        -2.001325
 H         3.542025        -0.188198        -2.411532
 H         2.870320         0.977107         1.608117
