19
Iteration:   642
 C         0.099642         0.189384         0.255937
 C         1.412861        -0.233006        -0.127418
 C         1.889119        -1.778892        -0.008812
 C         3.227258        -1.130239         0.653317
 O         4.075536        -1.727061         1.497930
 C         3.798417        -0.003269        -0.243115
 C         3.207969         0.668400        -1.488909
 O         1.824917         0.295155        -1.438342
 C         2.627563         0.161424         0.805046
 H         0.034639         0.257213         1.328813
 H         0.111484         1.246530        -0.033764
 H        -0.844608        -0.309410        -0.152878
 H         1.198461        -2.281370         0.778596
 H         1.946009        -2.423561        -0.908085
 H         3.613535        -1.784060         2.350781
 H         4.650812         0.493934         0.194247
 H         3.467249         1.744666        -1.468307
 H         3.789966         0.304163        -2.410448
 H         2.615678         0.915779         1.572695
