19
Iteration:  2131charge 0 multiplicity 1
 C         0.148421         0.114035         0.294937
 C         1.537057        -0.089135        -0.099039
 C         1.927812        -1.630812        -0.061163
 C         3.208099        -1.098717         0.645162
 O         3.970240        -1.839006         1.557676
 C         3.764513         0.126750        -0.199316
 C         3.186737         0.383114        -1.537255
 O         1.739220         0.417454        -1.405257
 C         2.677447         0.249065         0.838803
 H         0.041129        -0.280968         1.305027
 H        -0.066304         1.186599         0.201349
 H        -0.491491        -0.489386        -0.364720
 H         1.352430        -2.137377         0.687965
 H         1.975426        -2.162737        -1.028597
 H         4.474059        -2.526221         1.061396
 H         4.782112         0.322491         0.037659
 H         3.412967         1.344181        -1.979541
 H         3.393708        -0.462288        -2.203352
 H         2.509536         1.054395         1.630930
