19
Iteration:   302
 C         0.024171         0.173056         0.110459
 C         1.505432        -0.150918        -0.110855
 C         1.970667        -1.634467         0.026741
 C         3.246249        -1.116426         0.601106
 O         4.056683        -1.904222         1.514544
 C         3.764420         0.145694        -0.118274
 C         3.191212         0.357273        -1.534963
 O         1.780509         0.415445        -1.360087
 C         2.589222         0.277799         0.901987
 H        -0.243282         0.111278         1.200949
 H        -0.109034         1.188761        -0.274387
 H        -0.669902        -0.621536        -0.434132
 H         1.255394        -2.259899         0.685373
 H         1.859200        -2.318632        -0.832298
 H         4.956074        -1.529930         1.406927
 H         4.829620         0.484433         0.054357
 H         3.368738         1.389133        -2.049307
 H         3.470123        -0.418589        -2.230544
 H         2.530327         0.918058         1.859465
