19
Iteration:   330charge 0 multiplicity 1
 C         0.034442         0.266928         0.387730
 C         1.421758        -0.189008        -0.148126
 C         2.026146        -1.736489        -0.061398
 C         3.274439        -1.180257         0.595534
 O         3.970977        -1.793796         1.598042
 C         3.769153         0.131640        -0.153189
 C         3.264679         0.481156        -1.530924
 O         1.827828         0.293969        -1.531216
 C         2.495639         0.235618         0.822549
 H        -0.088836        -0.086083         1.413958
 H         0.004040         1.377138         0.431034
 H        -0.763588        -0.054938        -0.217497
 H         1.450001        -2.394827         0.611280
 H         2.092492        -2.268051        -1.045191
 H         4.924577        -1.787904         1.318177
 H         4.719049         0.502218         0.233932
 H         3.415440         1.514837        -1.666947
 H         3.753142        -0.149355        -2.340646
 H         2.411270         0.970948         1.610628
