19
Iteration:  4526
 C         0.089626         0.223002         0.367121
 C         1.515882        -0.142147        -0.197347
 C         1.979248        -1.687581        -0.008250
 C         3.213429        -1.080655         0.709896
 O         3.943925        -1.852934         1.611527
 C         3.785218        -0.017662        -0.251214
 C         3.206249         0.473139        -1.556689
 O         1.759289         0.399863        -1.513077
 C         2.661642         0.254694         0.838834
 H         0.008703        -0.404854         1.276267
 H         0.079596         1.195629         0.854500
 H        -0.698838        -0.130451        -0.405124
 H         1.282025        -2.226221         0.759983
 H         2.070281        -2.082198        -1.041366
 H         4.386890        -2.543100         1.056766
 H         4.836276         0.314464        -0.064141
 H         3.463082         1.538233        -1.623393
 H         3.491686         0.124375        -2.497867
 H         2.548625         0.938615         1.648188
