19
Iteration:  1740
 C         0.129513         0.287478         0.143437
 C         1.491323        -0.186112        -0.054357
 C         1.863992        -1.698894         0.145279
 C         3.209317        -1.180191         0.654635
 O         4.197771        -1.779298         1.392862
 C         3.766062         0.037319        -0.172704
 C         3.140780         0.515992        -1.511263
 O         1.770026         0.267769        -1.434624
 C         2.578296         0.221143         0.829720
 H        -0.252956         0.151195         1.180605
 H         0.111443         1.463238         0.041037
 H        -0.549842        -0.202288        -0.653317
 H         1.266923        -2.216630         0.990487
 H         1.863020        -2.309347        -0.820506
 H         3.817727        -1.998678         2.260739
 H         4.747885         0.410776         0.176351
 H         3.293094         1.567231        -1.554182
 H         3.607776        -0.000842        -2.443023
 H         2.604725         1.098213         1.433616
