19
Iteration:    82
 C         0.020044         0.161800         0.145738
 C         1.490283        -0.151573        -0.070081
 C         1.872564        -1.714086        -0.020499
 C         3.283583        -1.101121         0.608489
 O         4.130104        -1.785693         1.594280
 C         3.729592         0.148959        -0.123695
 C         3.190336         0.364004        -1.535477
 O         1.751764         0.488049        -1.421353
 C         2.646711         0.210346         0.848009
 H        -0.197834        -0.231510         1.176287
 H        -0.095749         1.311515        -0.027987
 H        -0.544762        -0.339402        -0.713951
 H         1.390625        -2.311166         0.784764
 H         1.729549        -2.286872        -0.910323
 H         4.598625        -2.563342         1.248033
 H         4.723300         0.449845         0.130853
 H         3.687456         1.262926        -2.028197
 H         3.377203        -0.614951        -2.021135
 H         2.563929         0.825075         1.737509
