19
Iteration:  2145charge 0 multiplicity 1
 C         0.021690         0.192436         0.435147
 C         1.463787        -0.192391        -0.107298
 C         2.005521        -1.664335        -0.142372
 C         3.247638        -1.139052         0.539282
 O         3.924768        -1.762799         1.648146
 C         3.831634         0.033622        -0.162243
 C         3.219216         0.419882        -1.623117
 O         1.761055         0.409143        -1.410260
 C         2.666891         0.257711         0.784191
 H        -0.068802        -0.184823         1.520526
 H        -0.174862         1.316893         0.346777
 H        -0.716013        -0.228100        -0.174818
 H         1.342149        -2.328755         0.439284
 H         2.085270        -2.087529        -1.076476
 H         4.583782        -2.401591         1.342696
 H         4.788405         0.456496         0.070509
 H         3.601169         1.497904        -1.872353
 H         3.492853        -0.182844        -2.443865
 H         2.749856         0.658146         1.728340
