19
Iteration:  1229
 C         0.054573         0.215886         0.269110
 C         1.470904        -0.159302        -0.098966
 C         2.030388        -1.692523         0.010941
 C         3.262589        -1.153628         0.608186
 O         4.081067        -1.829002         1.508153
 C         3.766122         0.113336        -0.133305
 C         3.141974         0.434968        -1.588776
 O         1.747654         0.365656        -1.482908
 C         2.625998         0.280845         0.840317
 H        -0.306874        -0.539819         1.000843
 H        -0.094179         1.188348         0.723150
 H        -0.682149         0.353906        -0.566577
 H         1.532859        -2.364372         0.659754
 H         2.117339        -2.197693        -0.906857
 H         3.524156        -2.025493         2.289899
 H         4.765642         0.467636         0.244827
 H         3.438163         1.293301        -2.116087
 H         3.683759        -0.408520        -2.008800
 H         2.674042         0.920230         1.744229
