19
Iteration:   442
 C        -0.094503         0.117232         0.203564
 C         1.391756        -0.157991        -0.082260
 C         1.951512        -1.629377        -0.073451
 C         3.248915        -1.045787         0.639714
 O         4.134706        -1.854376         1.501205
 C         3.782012         0.159225        -0.039865
 C         3.293657         0.279013        -1.543715
 O         1.799160         0.461222        -1.424326
 C         2.615990         0.300391         0.888563
 H        -0.296253         0.051796         1.275799
 H        -0.443647         1.012329        -0.250251
 H        -0.628417        -0.694929        -0.237379
 H         1.362577        -2.122825         0.765655
 H         1.801049        -2.196115        -0.997966
 H         4.756398        -2.254991         0.865133
 H         4.706809         0.534473         0.386219
 H         3.653901         1.098319        -2.158819
 H         3.467050        -0.799986        -1.962938
 H         2.549113         1.146336         1.545958
