19
Iteration:  3007
 C         0.039154         0.143916         0.164379
 C         1.456041        -0.154470        -0.010908
 C         1.959343        -1.644183        -0.014818
 C         3.236767        -1.080140         0.675293
 O         4.137220        -1.943702         1.335364
 C         3.741054         0.100998        -0.102901
 C         3.229367         0.300031        -1.563702
 O         1.777303         0.481674        -1.345762
 C         2.552223         0.326949         0.889983
 H        -0.145873        -0.018673         1.242726
 H        -0.268273         1.268427        -0.065590
 H        -0.620296        -0.448250        -0.526549
 H         1.301892        -2.262874         0.545450
 H         2.013276        -2.093466        -1.029687
 H         4.457209        -1.516363         2.149920
 H         4.764580         0.511965         0.259662
 H         3.491236         1.270340        -1.988890
 H         3.416426        -0.643410        -2.142089
 H         2.532165         1.152761         1.638279
