19
Iteration:  1047charge 0 multiplicity 1
 C        -0.066568         0.147567         0.146335
 C         1.438486        -0.162765        -0.098770
 C         2.025465        -1.520636         0.058880
 C         3.282930        -1.011913         0.679428
 O         4.170329        -1.842055         1.362948
 C         3.761968         0.147903        -0.088893
 C         3.189024         0.196556        -1.547762
 O         1.748141         0.425187        -1.327682
 C         2.598986         0.299381         0.882391
 H        -0.376703        -0.701548         0.786983
 H        -0.173828         1.155228         0.512049
 H        -0.478228         0.239649        -0.842784
 H         1.432560        -2.198195         0.744968
 H         2.192462        -2.107106        -0.906944
 H         3.777835        -2.722380         1.549085
 H         4.809533         0.480508         0.066806
 H         3.715431         0.929217        -2.184296
 H         3.368135        -0.789894        -2.019548
 H         2.417776         0.990868         1.720197
