19
Iteration:  4313
 C        -0.024996         0.128484         0.100303
 C         1.439332        -0.035718        -0.097151
 C         1.925970        -1.582515         0.091096
 C         3.261356        -1.063222         0.682717
 O         4.071071        -2.023889         1.328016
 C         3.745850         0.112955        -0.127007
 C         3.189492         0.206482        -1.533903
 O         1.816721         0.537354        -1.344353
 C         2.688457         0.326084         0.927296
 H        -0.321891        -0.111506         1.175074
 H        -0.495012         1.153244         0.120649
 H        -0.653563        -0.508333        -0.545254
 H         1.414957        -1.995842         0.881010
 H         1.936524        -2.197685        -0.819337
 H         4.881000        -1.636177         1.697604
 H         4.789237         0.572531         0.073708
 H         3.655025         0.916873        -2.241728
 H         3.289062        -0.776320        -1.960742
 H         2.734173         1.007636         1.724735
