19
Iteration:  4935charge 0 multiplicity 1
 C        -0.069173         0.256309         0.102036
 C         1.421688        -0.085382        -0.039845
 C         1.930216        -1.557301         0.049488
 C         3.246580        -1.046934         0.621783
 O         4.170437        -1.886103         1.345722
 C         3.838947         0.053628        -0.124626
 C         3.178196         0.129798        -1.511381
 O         1.796128         0.423451        -1.312408
 C         2.694442         0.313503         0.866464
 H        -0.528289        -0.225960         1.066663
 H        -0.186066         1.366282         0.175277
 H        -0.556864        -0.047454        -0.768264
 H         1.314616        -1.982952         0.902898
 H         1.661318        -2.177470        -0.911125
 H         3.851513        -1.991683         2.255337
 H         4.725725         0.571176         0.048457
 H         3.569852         0.872445        -2.216133
 H         3.153162        -0.889203        -2.059335
 H         2.790203         0.894846         1.770309
