19
Iteration:  1748charge 0 multiplicity 1
 C         0.083550         0.219549         0.144843
 C         1.467157        -0.194920        -0.075145
 C         1.883374        -1.656685         0.109199
 C         3.199164        -1.093950         0.644500
 O         4.180192        -1.843316         1.392151
 C         3.776085         0.064220        -0.154603
 C         3.181819         0.462353        -1.527028
 O         1.757973         0.283841        -1.386491
 C         2.638392         0.283341         0.817558
 H        -0.360968         0.100886         1.107023
 H         0.133035         1.265940         0.074023
 H        -0.568532        -0.168010        -0.594265
 H         1.339747        -1.961317         1.037183
 H         1.911267        -2.437393        -0.663479
 H         3.753968        -2.186189         2.191019
 H         4.767935         0.442742         0.261119
 H         3.383941         1.556946        -1.732140
 H         3.409691        -0.103223        -2.444811
 H         2.611210         1.174811         1.522145
