19
Iteration:  1964charge 0 multiplicity 1
 C         0.000253         0.182228         0.302510
 C         1.412541        -0.068142        -0.162124
 C         2.047065        -1.613616        -0.026478
 C         3.315636        -1.099846         0.676479
 O         4.112962        -1.830053         1.616897
 C         3.732602         0.065919        -0.220449
 C         3.146099         0.203330        -1.682289
 O         1.754149         0.584689        -1.370600
 C         2.655176         0.219843         0.893704
 H        -0.301041        -0.326726         1.251912
 H        -0.507822         1.116359         0.040457
 H        -0.615361        -0.440762        -0.407662
 H         1.334212        -2.162889         0.592364
 H         2.141502        -2.227714        -0.960563
 H         4.050186        -2.807278         1.588148
 H         4.653176         0.547716        -0.016645
 H         3.588439         1.062594        -2.222323
 H         3.290354        -0.721114        -2.346957
 H         2.924241         0.973020         1.540094
