19
Iteration:  2851charge 0 multiplicity 1
 C        -0.023515         0.087372         0.280651
 C         1.421593        -0.131287        -0.139960
 C         2.002549        -1.555057        -0.012589
 C         3.264541        -1.053942         0.682885
 O         4.140903        -1.902882         1.338407
 C         3.750497         0.092774        -0.075735
 C         3.232291         0.216357        -1.489262
 O         1.792202         0.500302        -1.352313
 C         2.606017         0.374502         0.758175
 H        -0.457593        -0.241057         1.239778
 H        -0.167962         1.198528         0.180927
 H        -0.567823        -0.509408        -0.363573
 H         1.458865        -2.068366         0.785243
 H         2.028621        -2.092096        -0.936250
 H         3.647157        -2.449632         1.966864
 H         4.626925         0.563414         0.163953
 H         3.635983         1.006170        -2.094919
 H         3.335633        -0.743669        -1.988229
 H         2.630671         1.164663         1.580266
