19
Iteration:  4602charge 0 multiplicity 1
 C         0.045177         0.162363         0.187487
 C         1.470374        -0.126967        -0.093495
 C         1.884161        -1.600874         0.069329
 C         3.195570        -1.125076         0.724075
 O         4.090259        -1.963038         1.403311
 C         3.746416         0.063484        -0.104116
 C         3.213244         0.283802        -1.528944
 O         1.828655         0.494339        -1.365639
 C         2.597857         0.361868         0.802493
 H        -0.160287         0.143688         1.301480
 H        -0.157156         1.280842         0.087847
 H        -0.698957        -0.504316        -0.503988
 H         1.239924        -2.270425         0.653347
 H         2.102392        -2.184083        -0.791546
 H         4.869341        -1.899374         0.835378
 H         4.761331         0.545132         0.182514
 H         3.546345         1.256226        -1.938639
 H         3.455581        -0.500235        -2.304305
 H         2.642825         1.155037         1.565713
