19
Iteration:   696
 C        -0.049866         0.151992         0.232456
 C         1.414336        -0.124530        -0.056602
 C         2.037579        -1.648490         0.025595
 C         3.254714        -1.054214         0.661886
 O         4.139006        -1.833843         1.331737
 C         3.682766         0.161660        -0.078369
 C         3.295947         0.209037        -1.545472
 O         1.828383         0.430308        -1.387750
 C         2.553719         0.354921         0.857570
 H        -0.541643        -0.614690         0.872113
 H        -0.013637         1.210033         0.542506
 H        -0.585772         0.161866        -0.798621
 H         1.604598        -2.290603         0.785969
 H         2.076338        -2.150598        -0.910932
 H         3.635262        -2.502215         1.809525
 H         4.685603         0.401285         0.166318
 H         3.699698         1.087572        -2.010067
 H         3.490621        -0.738324        -1.987526
 H         2.347102         1.045138         1.626157
