19
Iteration:   554
 C        -0.055717         0.163386         0.162900
 C         1.505914        -0.063185        -0.140237
 C         1.944416        -1.581435         0.028045
 C         3.270010        -1.036395         0.708487
 O         4.235833        -1.811539         1.396161
 C         3.700661         0.134135        -0.075473
 C         3.210736         0.178779        -1.539275
 O         1.809052         0.464443        -1.432391
 C         2.529972         0.213022         0.947007
 H        -0.331597        -0.465697         0.969249
 H        -0.228575         1.167604         0.447623
 H        -0.778516        -0.123339        -0.641054
 H         1.270609        -2.130778         0.814292
 H         2.232187        -2.198238        -0.860116
 H         3.847020        -2.697227         1.351924
 H         4.670098         0.489178         0.357338
 H         3.589120         1.010309        -2.176834
 H         3.395283        -0.867243        -2.130277
 H         2.493867         1.030316         1.716122
