19
Iteration:  4200
 C        -0.020759         0.222378         0.223651
 C         1.499308        -0.075047        -0.090350
 C         1.964984        -1.625405        -0.049331
 C         3.312787        -1.110738         0.625650
 O         4.098866        -1.904874         1.574518
 C         3.697643         0.106606        -0.164474
 C         3.173739         0.320433        -1.550156
 O         1.727755         0.414985        -1.398850
 C         2.672341         0.260830         0.858491
 H        -0.378415        -0.299989         1.097588
 H        -0.016874         1.294117         0.668867
 H        -0.412662        -0.033374        -0.819149
 H         1.442630        -2.227635         0.698354
 H         2.065257        -2.059530        -0.975306
 H         4.099701        -2.830934         1.240171
 H         4.647935         0.482120         0.070065
 H         3.588574         1.253534        -1.824841
 H         3.496698        -0.341118        -2.340780
 H         2.778912         1.162923         1.505482
