19
Iteration:  4108charge 0 multiplicity 1
 C         0.146278         0.365401         0.292340
 C         1.425833        -0.240153        -0.114323
 C         2.006502        -1.759291        -0.015125
 C         3.230399        -1.120934         0.499047
 O         3.940253        -1.807349         1.512639
 C         3.747355         0.113652        -0.168806
 C         3.194995         0.502232        -1.496216
 O         1.764661         0.297576        -1.350074
 C         2.614070         0.129328         0.795525
 H         0.051961         0.516601         1.457146
 H         0.240794         1.438371         0.105705
 H        -0.744948        -0.118913        -0.117447
 H         1.600709        -2.496976         0.708462
 H         2.034327        -2.261816        -0.984344
 H         4.863403        -1.935436         1.252193
 H         4.622323         0.559108         0.318510
 H         3.478651         1.491380        -1.766295
 H         3.615061        -0.091212        -2.325643
 H         2.702214         0.911349         1.607485
