19
Iteration:  3459
 C        -0.026666         0.132652         0.252549
 C         1.456217        -0.086311        -0.098599
 C         2.006591        -1.563924        -0.097629
 C         3.275477        -1.169850         0.645388
 O         4.114354        -1.839317         1.591864
 C         3.700853         0.074264        -0.135681
 C         3.214885         0.332044        -1.591156
 O         1.732651         0.504537        -1.359440
 C         2.628194         0.237646         0.856570
 H        -0.353723        -0.482498         1.030994
 H        -0.105728         1.233113         0.388995
 H        -0.738975        -0.229072        -0.478111
 H         1.335253        -2.257509         0.411149
 H         2.141051        -2.170307        -1.095628
 H         4.760066        -2.349049         1.079634
 H         4.715654         0.237298         0.026162
 H         3.766502         1.219905        -2.011460
 H         3.316709        -0.442950        -2.392040
 H         2.681554         0.877547         1.722465
