19
Iteration:  2812
 C         0.019860         0.225498         0.082116
 C         1.483941        -0.169165        -0.030370
 C         1.827113        -1.603222         0.111427
 C         3.228974        -1.150722         0.628447
 O         4.267373        -1.816420         1.350350
 C         3.725888         0.119920        -0.122295
 C         3.131331         0.390522        -1.468534
 O         1.744104         0.332057        -1.366839
 C         2.707338         0.242948         0.852458
 H        -0.451564        -0.130317         0.981419
 H        -0.106344         1.309566        -0.040774
 H        -0.503545        -0.122930        -0.944416
 H         1.219844        -1.969610         0.961636
 H         1.784939        -2.289545        -0.829693
 H         3.942215        -2.305763         2.137019
 H         4.760807         0.279617         0.233887
 H         3.515283         1.411015        -1.871753
 H         3.589608        -0.148149        -2.327388
 H         2.718663         0.794236         1.690246
