19
Iteration:  4947
 C        -0.046897         0.303459         0.075578
 C         1.459502        -0.083151        -0.022644
 C         1.795536        -1.548124         0.132772
 C         3.305072        -1.151560         0.587768
 O         4.183514        -1.839732         1.313508
 C         3.806513         0.074591        -0.141549
 C         3.196826         0.210746        -1.549734
 O         1.804577         0.332803        -1.306940
 C         2.642106         0.294555         0.896388
 H        -0.598912        -0.294121         0.935083
 H        -0.157793         1.426020         0.246914
 H        -0.511284         0.012757        -0.838197
 H         1.425203        -2.033193         1.084951
 H         1.791570        -2.286670        -0.724462
 H         3.843031        -2.024952         2.212049
 H         4.790492         0.232974         0.209652
 H         3.486413         1.153004        -2.028279
 H         3.635327        -0.659157        -2.196620
 H         2.729401         1.126563         1.612836
