19
Iteration:   998charge 0 multiplicity 1
 C         0.000253         0.133755         0.150073
 C         1.461227        -0.141693        -0.125675
 C         1.872800        -1.643961         0.030730
 C         3.206861        -1.115293         0.611572
 O         4.241233        -1.806445         1.355447
 C         3.686439         0.087658        -0.098725
 C         3.184411         0.363768        -1.502138
 O         1.793934         0.382175        -1.395922
 C         2.634899         0.289420         0.958314
 H        -0.158973        -0.153564         1.176717
 H        -0.050182         1.239715         0.038230
 H        -0.686814        -0.311876        -0.602907
 H         1.213038        -1.969383         0.834751
 H         1.904300        -2.377216        -0.840448
 H         3.976503        -1.931964         2.273957
 H         4.763124         0.317226         0.159897
 H         3.599832         1.359823        -1.812733
 H         3.601306        -0.443412        -2.186953
 H         2.855887         1.123481         1.677130
