19
Iteration:  4137
 C         0.056446         0.144840         0.275803
 C         1.455396        -0.046977        -0.116272
 C         1.914319        -1.533835        -0.070439
 C         3.227958        -1.138728         0.649771
 O         4.127663        -1.896035         1.614770
 C         3.764466         0.023041        -0.169136
 C         3.205593         0.297752        -1.535500
 O         1.720120         0.505771        -1.407908
 C         2.650083         0.247561         0.821797
 H        -0.154662        -0.051357         1.278896
 H        -0.260823         1.163902         0.023283
 H        -0.622340        -0.510418        -0.248326
 H         1.278430        -2.234434         0.450354
 H         1.964759        -2.093360        -1.125119
 H         4.699017        -2.318732         0.937018
 H         4.720119         0.304634         0.115022
 H         3.656232         1.324132        -1.954863
 H         3.379698        -0.404370        -2.424429
 H         2.622648         0.894713         1.743168
