19
Iteration:  4390
 C         0.105512         0.259849         0.392587
 C         1.456737        -0.172799        -0.146837
 C         1.983361        -1.644257         0.022507
 C         3.287818        -1.095665         0.547183
 O         3.844096        -1.961181         1.584749
 C         3.811433         0.103336        -0.229350
 C         3.195819         0.534605        -1.547063
 O         1.805695         0.244278        -1.488595
 C         2.647978         0.252636         0.758020
 H         0.015121        -0.176564         1.479456
 H        -0.032437         1.377238         0.695855
 H        -0.791755        -0.050142        -0.163546
 H         1.490660        -2.251204         0.718627
 H         2.068922        -2.274882        -0.886392
 H         4.752992        -1.680451         1.734141
 H         4.732936         0.659193         0.183921
 H         3.360982         1.588334        -1.560895
 H         3.552855         0.127354        -2.463899
 H         2.720821         1.032553         1.517823
