19
Iteration:  1435
 C         0.035225         0.149311         0.377575
 C         1.496333        -0.178531        -0.102950
 C         1.941454        -1.723123        -0.010093
 C         3.225783        -1.097659         0.615319
 O         3.975472        -1.793315         1.561805
 C         3.804757         0.050920        -0.180875
 C         3.212452         0.423358        -1.578959
 O         1.755322         0.411903        -1.464918
 C         2.718300         0.334431         0.707346
 H        -0.119823        -0.233106         1.351912
 H         0.010523         1.183504         0.228663
 H        -0.594631        -0.204189        -0.408760
 H         1.366180        -2.387684         0.677155
 H         2.151596        -2.292908        -0.967723
 H         3.668519        -1.820486         2.496935
 H         4.836662         0.177372        -0.029241
 H         3.642499         1.449326        -1.807627
 H         3.475353        -0.221916        -2.370065
 H         2.796131         0.700732         1.710951
