19
Iteration:    59
 C         0.064112         0.198217         0.316101
 C         1.494419        -0.155845        -0.176637
 C         2.005682        -1.648218        -0.077778
 C         3.206622        -1.079441         0.655521
 O         3.954161        -1.752998         1.613315
 C         3.768566         0.027525        -0.180059
 C         3.198709         0.459407        -1.558018
 O         1.788806         0.292555        -1.436385
 C         2.627217         0.204439         0.812427
 H        -0.019865        -0.345981         1.293122
 H        -0.025046         1.372726         0.427460
 H        -0.751319        -0.055368        -0.383770
 H         1.484417        -2.360916         0.558184
 H         2.104692        -2.178044        -0.993699
 H         4.738199        -2.199702         1.221106
 H         4.768988         0.404122         0.124193
 H         3.345963         1.576509        -1.472394
 H         3.512977        -0.004780        -2.504325
 H         2.702731         0.832024         1.768444
