19
Iteration:  4940charge 0 multiplicity 1
 C        -0.098910         0.285412         0.105598
 C         1.471531        -0.102803        -0.043106
 C         1.846388        -1.525969         0.061845
 C         3.287215        -1.093874         0.593408
 O         4.166448        -1.859294         1.329499
 C         3.849433         0.047727        -0.121238
 C         3.167036         0.140541        -1.514962
 O         1.806706         0.386441        -1.296151
 C         2.656970         0.311794         0.878469
 H        -0.460222        -0.296827         0.908402
 H        -0.060470         1.383271         0.143843
 H        -0.562792        -0.080155        -0.905280
 H         1.446000        -1.975172         0.959155
 H         1.746580        -2.201417        -0.722455
 H         3.943306        -2.031829         2.270641
 H         4.847869         0.510423         0.198253
 H         3.344459         1.041629        -2.163037
 H         3.361819        -0.795214        -2.102450
 H         2.813703         1.006695         1.723021
