19
Iteration:  2510
 C         0.076251         0.199809         0.242673
 C         1.475466        -0.183847        -0.080225
 C         1.963765        -1.682346        -0.017814
 C         3.225011        -1.122309         0.622126
 O         4.131692        -1.780821         1.481022
 C         3.698244         0.089729        -0.151831
 C         3.201616         0.312572        -1.583558
 O         1.746640         0.428526        -1.332582
 C         2.635699         0.337883         0.832710
 H        -0.125716        -0.381896         1.127062
 H        -0.125798         1.196042         0.524563
 H        -0.657732        -0.050784        -0.574288
 H         1.330729        -2.440005         0.570221
 H         2.252708        -2.063173        -1.001295
 H         3.544552        -2.369247         1.997544
 H         4.851471         0.205795        -0.104952
 H         3.535746         1.173170        -2.206903
 H         3.548136        -0.394668        -2.375380
 H         2.622717         1.099196         1.669761
