19
Iteration:  3477
 C         0.003735         0.176569         0.222417
 C         1.450878        -0.145091        -0.068085
 C         1.942816        -1.650869        -0.016742
 C         3.281021        -1.103266         0.634635
 O         4.006359        -1.853038         1.516715
 C         3.855147        -0.002636        -0.213493
 C         3.176693         0.496422        -1.476278
 O         1.747782         0.381894        -1.435956
 C         2.688018         0.254314         0.859006
 H        -0.272674        -0.192772         1.243339
 H        -0.253011         1.202608         0.294602
 H        -0.534596        -0.466886        -0.512211
 H         1.400750        -2.257021         0.679588
 H         1.845462        -2.226106        -0.987854
 H         4.860446        -2.062924         1.120226
 H         4.667600         0.575382         0.165396
 H         3.394819         1.577106        -1.556678
 H         3.405856        -0.154689        -2.343343
 H         2.776675         0.985055         1.675558
