19
Iteration:  4230charge 0 multiplicity 1
 C         0.109520         0.338296         0.336957
 C         1.495767        -0.207670        -0.157280
 C         1.899223        -1.755695        -0.037037
 C         3.153434        -1.154207         0.598878
 O         4.043283        -1.688582         1.491820
 C         3.742230         0.052948        -0.138337
 C         3.221122         0.476217        -1.493057
 O         1.790709         0.291550        -1.413638
 C         2.620706         0.175678         0.838868
 H        -0.145223        -0.082876         1.358805
 H         0.273524         1.467112         0.218583
 H        -0.722614         0.175382        -0.402786
 H         1.280750        -2.408711         0.682773
 H         1.970882        -2.413381        -0.945471
 H         4.562986        -2.380307         1.042370
 H         4.814376         0.228847         0.143111
 H         3.513606         1.544964        -1.625394
 H         3.746137         0.019762        -2.403089
 H         2.591956         0.842692         1.660852
