19
Iteration:  2269
 C        -0.009031         0.263946         0.114553
 C         1.434152        -0.209606        -0.047678
 C         1.900983        -1.664877         0.105871
 C         3.249229        -1.056293         0.663670
 O         4.213881        -1.857633         1.388062
 C         3.717027         0.024378        -0.154373
 C         3.193252         0.322610        -1.535690
 O         1.797963         0.453027        -1.299733
 C         2.575124         0.270804         0.873391
 H        -0.412157         0.166249         1.120459
 H        -0.009222         1.286060        -0.250324
 H        -0.680255        -0.446604        -0.584771
 H         1.245027        -2.049125         0.899134
 H         1.932120        -2.193708        -0.841262
 H         4.797757        -2.108172         0.660904
 H         4.681165         0.312856         0.097940
 H         3.636692         1.295254        -1.827605
 H         3.420001        -0.535497        -2.141417
 H         2.612107         1.083781         1.592559
