19
Iteration:  4009
 C        -0.028958         0.105918         0.186305
 C         1.438070        -0.101399        -0.030183
 C         1.967461        -1.556121        -0.085200
 C         3.319075        -1.118188         0.612220
 O         4.119130        -1.887116         1.536810
 C         3.766408         0.101854        -0.157616
 C         3.164856         0.216880        -1.596453
 O         1.785408         0.616664        -1.310722
 C         2.621164         0.247106         0.874856
 H        -0.414988        -0.116287         1.306440
 H        -0.237238         1.220404         0.169119
 H        -0.524254        -0.389512        -0.680019
 H         1.460903        -2.141847         0.665947
 H         2.013138        -1.967740        -1.040775
 H         4.261800        -2.774494         1.155327
 H         4.723661         0.476054        -0.018301
 H         3.530305         0.982585        -2.253751
 H         3.194374        -0.796033        -1.987191
 H         2.686497         0.842826         1.793771
