19
Iteration:   976
 C        -0.016188         0.200580         0.297922
 C         1.468154        -0.161181        -0.062327
 C         1.950382        -1.703035         0.080962
 C         3.216382        -1.102303         0.559064
 O         4.082619        -1.781542         1.474706
 C         3.811429         0.058995        -0.218320
 C         3.255017         0.571655        -1.505737
 O         1.782846         0.269463        -1.421794
 C         2.638065         0.207353         0.719192
 H        -0.185680         0.161381         1.373373
 H        -0.241447         1.216962        -0.147932
 H        -0.656615        -0.479758        -0.274638
 H         1.439833        -2.294726         0.849608
 H         1.919368        -2.152206        -0.970982
 H         3.628101        -2.144253         2.276140
 H         4.883967         0.225346         0.174825
 H         3.415458         1.694669        -1.490855
 H         3.721109         0.088645        -2.434315
 H         2.494646         0.757925         1.707918
