19
Iteration:   808
 C         0.094277         0.163961         0.470488
 C         1.401543        -0.244604        -0.211667
 C         1.949442        -1.677670        -0.042734
 C         3.203313        -1.050874         0.555250
 O         4.060189        -1.746337         1.454747
 C         3.757040         0.080761        -0.099838
 C         3.325921         0.468665        -1.464812
 O         1.852406         0.210032        -1.518853
 C         2.539633         0.354699         0.777465
 H         0.142328         0.255922         1.631337
 H         0.104059         1.296810         0.250925
 H        -0.913309        -0.281700         0.273271
 H         1.427953        -2.350837         0.680567
 H         2.055394        -1.994902        -1.064836
 H         3.363086        -2.345875         1.818843
 H         4.823692         0.297115         0.148431
 H         3.281109         1.568767        -1.609266
 H         3.584755        -0.167818        -2.299461
 H         2.422072         0.908513         1.739550
