19
Iteration:  1162
 C        -0.072750         0.084376         0.143008
 C         1.422425        -0.138897        -0.065464
 C         1.906399        -1.545463         0.066705
 C         3.240777        -1.047437         0.677446
 O         4.231731        -1.885399         1.244533
 C         3.786534         0.109748        -0.079511
 C         3.249055         0.239008        -1.512677
 O         1.847189         0.475189        -1.345766
 C         2.543948         0.331773         0.903951
 H        -0.225759         0.233931         1.180919
 H        -0.367104         0.964991        -0.413396
 H        -0.757678        -0.640994        -0.300590
 H         1.360285        -2.096711         0.774478
 H         1.954888        -2.143143        -0.772211
 H         3.888203        -2.259045         2.079988
 H         4.750409         0.476479         0.319157
 H         3.685147         0.955190        -2.122181
 H         3.221590        -0.638880        -2.086505
 H         2.462048         1.069370         1.719909
