19
Iteration:  3554charge 0 multiplicity 1
 C         0.058922         0.291019         0.136833
 C         1.434077        -0.145166        -0.014695
 C         1.926372        -1.710949         0.034972
 C         3.170414        -1.115049         0.650402
 O         4.157418        -1.869937         1.317585
 C         3.704164         0.137936        -0.073453
 C         3.248911         0.362993        -1.496335
 O         1.765905         0.347668        -1.352985
 C         2.580777         0.249133         0.955164
 H        -0.498955         0.101719         1.081459
 H         0.176236         1.340982        -0.175759
 H        -0.565592        -0.240004        -0.650511
 H         1.497370        -2.400353         0.718114
 H         2.031434        -2.218919        -0.893932
 H         4.904365        -1.681847         0.734649
 H         4.635810         0.353386         0.295933
 H         3.411520         1.349121        -1.955752
 H         3.654094        -0.324388        -2.304416
 H         2.632553         0.981631         1.776604
