19
Iteration:  3805charge 0 multiplicity 1
 C         0.214001         0.102015         0.404882
 C         1.534546        -0.195078        -0.204759
 C         2.037595        -1.724343        -0.097665
 C         3.220352        -1.167732         0.499697
 O         3.801454        -1.848586         1.601150
 C         3.709441         0.084854        -0.165925
 C         3.167828         0.525075        -1.563253
 O         1.741153         0.517398        -1.385346
 C         2.691398         0.238680         0.796214
 H         0.270061        -0.063179         1.447201
 H         0.201211         1.190891         0.474339
 H        -0.684679        -0.411460         0.042350
 H         1.296581        -2.369999         0.522275
 H         2.114972        -2.341512        -1.042952
 H         4.765928        -1.731346         1.718930
 H         4.796824         0.316803         0.140224
 H         3.402322         1.588408        -1.791619
 H         3.592629        -0.286654        -2.332944
 H         2.785825         0.796309         1.701563
