19
Iteration:  1694
 C         0.135566         0.399389         0.275736
 C         1.424110        -0.212732        -0.064279
 C         1.878654        -1.717185         0.047497
 C         3.272920        -1.110429         0.550164
 O         4.143986        -1.785408         1.422599
 C         3.689080         0.148864        -0.155259
 C         3.225711         0.468787        -1.485473
 O         1.813417         0.122544        -1.455695
 C         2.583646         0.208273         0.791316
 H        -0.135955         0.183587         1.325342
 H         0.014401         1.505422         0.201325
 H        -0.673116        -0.031699        -0.317854
 H         1.469656        -2.379555         0.897420
 H         1.871816        -2.263682        -0.945444
 H         3.604924        -1.874915         2.221922
 H         4.650357         0.624193         0.268888
 H         3.411775         1.527523        -1.616931
 H         3.653297        -0.093576        -2.372367
 H         2.445316         0.924809         1.706178
