19
Iteration:  4296
 C         0.052670         0.132323         0.174254
 C         1.507072        -0.084284         0.004880
 C         1.969187        -1.509489         0.074301
 C         3.240477        -1.100573         0.691290
 O         4.012891        -2.042141         1.326662
 C         3.766077         0.051095        -0.108061
 C         3.205323         0.281778        -1.539161
 O         1.757266         0.412953        -1.336423
 C         2.594904         0.418588         0.849916
 H        -0.404124         0.083522         1.160152
 H        -0.045247         1.160993        -0.224493
 H        -0.227135        -0.580254        -0.607583
 H         1.248328        -2.135449         0.779801
 H         2.010840        -2.014046        -0.944474
 H         4.884910        -1.634557         1.500343
 H         4.747858         0.377027         0.084166
 H         3.500520         1.283500        -2.013912
 H         3.451001        -0.369438        -2.446609
 H         2.616078         1.362971         1.473854
