19
Iteration:  3927charge 0 multiplicity 1
 C         0.099056         0.265070         0.290736
 C         1.485519        -0.185169        -0.023417
 C         1.905588        -1.678781         0.021571
 C         3.245079        -1.126231         0.563455
 O         3.970896        -1.857996         1.452224
 C         3.741783         0.102902        -0.151977
 C         3.172125         0.565576        -1.536026
 O         1.816242         0.247459        -1.406487
 C         2.643821         0.253348         0.866568
 H        -0.241340        -0.268257         1.087440
 H         0.220979         1.344132         0.302140
 H        -0.624401         0.030413        -0.488791
 H         1.370842        -2.401553         0.707335
 H         2.008676        -2.286383        -0.981466
 H         4.704248        -2.441077         1.155371
 H         4.780435         0.331912        -0.140585
 H         3.392320         1.593393        -1.653305
 H         3.749898         0.238387        -2.428951
 H         2.661107         1.010533         1.709429
