19
Iteration:  4923
 C        -0.018891         0.231320         0.179518
 C         1.467616        -0.050326        -0.060108
 C         1.961838        -1.601927         0.048416
 C         3.263865        -1.113951         0.705140
 O         4.131180        -1.901222         1.391979
 C         3.718840         0.122408        -0.203093
 C         3.181126         0.093626        -1.567257
 O         1.768815         0.548670        -1.383049
 C         2.682773         0.330864         0.892554
 H        -0.436508        -0.212210         1.160818
 H        -0.214871         1.312559         0.130239
 H        -0.572381        -0.265293        -0.568785
 H         1.357450        -2.285996         0.722463
 H         2.255605        -2.180086        -0.995869
 H         3.702495        -2.115740         2.257290
 H         4.761034         0.308541        -0.008602
 H         3.794229         0.693352        -2.235638
 H         3.265374        -0.984196        -1.932624
 H         2.745556         0.986396         1.749476
