19
Iteration:   486
 C         0.132507         0.187300         0.293607
 C         1.489191        -0.185743        -0.124526
 C         1.921841        -1.725725         0.022000
 C         3.218706        -1.204254         0.635649
 O         4.027661        -1.905561         1.583298
 C         3.793980         0.199836        -0.158621
 C         3.178310         0.639010        -1.550716
 O         1.756322         0.214698        -1.549749
 C         2.650322         0.269137         0.826891
 H        -0.235669        -0.157973         1.273026
 H         0.195717         1.260536         0.244904
 H        -0.713152        -0.036216        -0.367067
 H         1.147923        -2.299898         0.634125
 H         2.044628        -2.113333        -0.965091
 H         4.368208        -1.342198         2.307232
 H         4.786266         0.487289         0.073419
 H         3.274738         1.728507        -1.724582
 H         3.662543         0.012984        -2.445320
 H         2.446726         1.091255         1.463684
