19
Iteration:  4736charge 0 multiplicity 1
 C         0.113918         0.186831         0.383782
 C         1.500186        -0.123462        -0.131701
 C         1.926890        -1.623130        -0.050067
 C         3.293731        -1.102639         0.580922
 O         3.929795        -1.864755         1.536904
 C         3.822938         0.022182        -0.197458
 C         3.171232         0.385992        -1.569092
 O         1.771943         0.390909        -1.426600
 C         2.719221         0.308361         0.800807
 H         0.063457        -0.038360         1.465230
 H        -0.182503         1.236837         0.199548
 H        -0.645462        -0.580213        -0.111063
 H         1.380493        -2.172127         0.702554
 H         1.993131        -2.031929        -0.981230
 H         3.286184        -2.127607         2.230840
 H         4.813368         0.355241         0.000661
 H         3.594269         1.347342        -1.873309
 H         3.381621        -0.288994        -2.483125
 H         2.653446         0.980561         1.640323
