19
Iteration:   507charge 0 multiplicity 1
 C         0.053685         0.277773         0.244614
 C         1.478166        -0.196558        -0.135591
 C         1.999882        -1.702858        -0.004917
 C         3.277145        -1.108976         0.630463
 O         4.039175        -1.813709         1.557608
 C         3.783775         0.009813        -0.257103
 C         3.163669         0.593457        -1.511687
 O         1.786729         0.230445        -1.446399
 C         2.608216         0.230670         0.806875
 H        -0.334733        -0.491843         0.987140
 H        -0.061133         1.305275         0.651541
 H        -0.708647         0.151773        -0.556500
 H         1.562058        -2.102929         0.885256
 H         2.046828        -2.368354        -0.816946
 H         3.676126        -1.872717         2.483803
 H         4.721082         0.450846        -0.019658
 H         3.255181         1.657292        -1.422714
 H         3.597283         0.281339        -2.539851
 H         2.800554         0.820807         1.654703
