19
Iteration:  4311charge 0 multiplicity 1
 C        -0.005096         0.129483         0.103852
 C         1.455119        -0.044258        -0.082062
 C         1.922617        -1.572325         0.071985
 C         3.257359        -1.051900         0.686510
 O         4.071834        -2.034386         1.328384
 C         3.749859         0.107055        -0.138899
 C         3.198716         0.216167        -1.544186
 O         1.799394         0.522828        -1.335413
 C         2.682889         0.336295         0.930309
 H        -0.326635        -0.166401         1.170346
 H        -0.512887         1.217372         0.024123
 H        -0.681092        -0.540163        -0.550323
 H         1.358499        -1.974022         0.891975
 H         1.944942        -2.207330        -0.790311
 H         4.878703        -1.645574         1.681396
 H         4.742140         0.548672         0.095254
 H         3.681129         0.943881        -2.134726
 H         3.280856        -0.794055        -1.947920
 H         2.697779         1.105996         1.706929
