19
Iteration:  1059charge 0 multiplicity 1
 C         0.057605         0.122132         0.185600
 C         1.476997        -0.092437        -0.028117
 C         1.937958        -1.648587         0.006456
 C         3.249657        -1.073887         0.666552
 O         4.162355        -1.823755         1.459470
 C         3.797112         0.121964        -0.144178
 C         3.171766         0.284419        -1.577478
 O         1.779994         0.398623        -1.446207
 C         2.587198         0.364331         0.897438
 H        -0.593656        -0.571378         0.805631
 H        -0.206469         1.022420         0.759290
 H        -0.513702        -0.030820        -0.706297
 H         1.331970        -2.143876         0.804182
 H         1.950983        -2.220107        -0.951595
 H         3.740836        -2.686263         1.486459
 H         4.678251         0.693249         0.276265
 H         3.377943         1.246042        -2.041654
 H         3.376667        -0.538221        -2.263074
 H         2.591141         0.852846         1.908483
