19
Iteration:  3659
 C         0.113020         0.209588         0.450303
 C         1.449405        -0.239406        -0.180753
 C         2.008006        -1.714537        -0.161771
 C         3.277642        -1.128403         0.535794
 O         3.897492        -1.807636         1.612752
 C         3.754148         0.121243        -0.168498
 C         3.297649         0.529777        -1.569744
 O         1.772129         0.404814        -1.388451
 C         2.606350         0.195877         0.775464
 H         0.278027         0.085527         1.534870
 H        -0.071980         1.239577         0.465942
 H        -0.722643        -0.272773         0.066667
 H         1.354064        -2.203363         0.718381
 H         2.092521        -2.357339        -1.127791
 H         4.424879        -2.500329         1.168773
 H         4.662056         0.462821         0.138535
 H         3.386816         1.613917        -1.708885
 H         3.507961        -0.083539        -2.460105
 H         2.435369         0.522089         1.809830
