19
Iteration:  1605
 C        -0.030610         0.185838         0.196181
 C         1.481753        -0.137285        -0.079287
 C         2.021186        -1.667067        -0.000791
 C         3.268026        -1.125125         0.584703
 O         4.144688        -1.797604         1.483404
 C         3.717086         0.010296        -0.135418
 C         3.154499         0.241278        -1.575280
 O         1.767360         0.502710        -1.346676
 C         2.663417         0.318701         0.816010
 H        -0.273272        -0.046297         1.256237
 H        -0.218874         1.260343         0.124198
 H        -0.604587        -0.391781        -0.514786
 H         1.331851        -2.065490         0.807790
 H         2.123525        -2.328291        -0.880075
 H         3.764690        -1.834520         2.370776
 H         4.642424         0.419946         0.125939
 H         3.654865         1.072284        -2.091409
 H         3.197093        -0.666670        -2.243133
 H         2.632222         1.131534         1.547409
