19
Iteration:  4693
 C         0.160194         0.273836         0.421976
 C         1.448585        -0.186742        -0.222281
 C         1.955625        -1.676964        -0.092865
 C         3.200252        -1.159913         0.566284
 O         4.011527        -1.825511         1.567012
 C         3.798149        -0.010685        -0.182611
 C         3.229204         0.407778        -1.518360
 O         1.747223         0.396896        -1.463906
 C         2.585261         0.196907         0.790347
 H         0.292587        -0.090586         1.431478
 H         0.330676         1.339430         0.556785
 H        -0.794713        -0.044169        -0.147870
 H         1.266992        -2.101752         0.715951
 H         1.965790        -2.291510        -0.971233
 H         4.013612        -1.225089         2.355525
 H         4.727970         0.346869         0.109586
 H         3.364793         1.448265        -1.515500
 H         3.708323         0.036326        -2.419479
 H         2.592822         1.046405         1.441249
