19
Iteration:  3900
 C        -0.041209         0.338116         0.106179
 C         1.398639        -0.129147        -0.096990
 C         1.911404        -1.611533         0.059405
 C         3.280641        -1.163494         0.663418
 O         4.248626        -1.879353         1.366974
 C         3.791923         0.080908        -0.059887
 C         3.196100         0.392745        -1.495266
 O         1.712527         0.359821        -1.374004
 C         2.584744         0.218042         0.904931
 H        -0.598428        -0.140358         1.050296
 H         0.025106         1.421462         0.311526
 H        -0.568932         0.031426        -0.811573
 H         1.298321        -2.163322         0.823236
 H         1.900485        -2.348895        -0.712067
 H         4.570770        -2.610100         0.804675
 H         4.835823         0.495462         0.208912
 H         3.611126         1.451672        -1.784153
 H         3.657892        -0.233108        -2.266103
 H         2.562811         0.649691         1.875190
