19
Iteration:  4560
 C         0.180711         0.283410         0.391797
 C         1.452151        -0.232936        -0.082612
 C         1.864030        -1.734552        -0.146966
 C         3.274215        -1.209962         0.515064
 O         3.922529        -1.725616         1.674080
 C         3.849726         0.200883        -0.240055
 C         3.223883         0.533530        -1.565655
 O         1.796416         0.308114        -1.392896
 C         2.676761         0.127624         0.769680
 H        -0.033223         0.103677         1.408124
 H         0.003311         1.324546         0.149540
 H        -0.776313        -0.139145        -0.112404
 H         1.263056        -2.498609         0.518320
 H         1.582676        -2.134180        -1.148504
 H         4.092629        -2.676691         1.471541
 H         4.823100         0.613667         0.250012
 H         3.479743         1.549880        -1.672415
 H         3.503272        -0.053255        -2.372742
 H         2.444077         0.722905         1.683000
