19
Iteration:   540charge 0 multiplicity 1
 C         0.030545         0.173114         0.181849
 C         1.415739        -0.126819        -0.085607
 C         1.922389        -1.680884         0.013516
 C         3.177859        -1.132383         0.651499
 O         4.191086        -1.769516         1.457971
 C         3.732316         0.137619        -0.139936
 C         3.249203         0.346086        -1.582351
 O         1.829585         0.373475        -1.366313
 C         2.591810         0.315978         0.876647
 H        -0.367343        -0.601985         0.919530
 H        -0.170867         1.205158         0.561330
 H        -0.550498         0.114084        -0.782649
 H         1.282352        -2.076153         0.747569
 H         1.811238        -2.282469        -0.837905
 H         4.029694        -2.695608         1.709888
 H         4.709442         0.554484         0.017816
 H         3.602732         1.234748        -2.040483
 H         3.497451        -0.578217        -2.192234
 H         2.534396         0.826993         1.810680
