19
Iteration:  3660charge 0 multiplicity 1
 C         0.115589         0.208224         0.441481
 C         1.455581        -0.227289        -0.177507
 C         2.007119        -1.720532        -0.153188
 C         3.270307        -1.126931         0.531800
 O         3.900837        -1.807908         1.602059
 C         3.759451         0.115573        -0.159715
 C         3.298803         0.533142        -1.570591
 O         1.765022         0.401917        -1.390231
 C         2.606702         0.193506         0.777754
 H         0.239424         0.128543         1.549906
 H        -0.041258         1.242448         0.456790
 H        -0.725317        -0.303590         0.067481
 H         1.338938        -2.218678         0.709322
 H         2.088992        -2.353702        -1.094356
 H         4.451562        -2.475491         1.156237
 H         4.672739         0.463192         0.148297
 H         3.371683         1.581406        -1.708526
 H         3.521819        -0.070496        -2.396337
 H         2.400831         0.544749         1.805297
