19
Iteration:  3148charge 0 multiplicity 1
 C        -0.060964         0.194300         0.017122
 C         1.416511        -0.133125        -0.095822
 C         1.879556        -1.567824         0.139049
 C         3.288538        -1.196704         0.614648
 O         4.270267        -1.971142         1.404890
 C         3.742582         0.018401        -0.149083
 C         3.195695         0.443875        -1.481764
 O         1.788771         0.439949        -1.302741
 C         2.544333         0.297624         0.904548
 H        -0.414348        -0.036648         1.022320
 H        -0.336728         1.284374        -0.183617
 H        -0.537257        -0.435268        -0.733386
 H         1.373939        -1.958904         0.977648
 H         1.675410        -2.188567        -0.718923
 H         5.119247        -1.805340         0.957880
 H         4.625925         0.555949         0.084759
 H         3.431911         1.480514        -1.655525
 H         3.453358        -0.324574        -2.207277
 H         2.731916         0.990764         1.808950
