19
Iteration:  1524charge 0 multiplicity 1
 C         0.038668         0.317899         0.161847
 C         1.471750        -0.097057        -0.105860
 C         1.883761        -1.687924         0.194677
 C         3.244687        -1.152601         0.607655
 O         4.211600        -1.827573         1.456375
 C         3.740247         0.112650        -0.167056
 C         3.174561         0.479090        -1.537288
 O         1.788980         0.213332        -1.461216
 C         2.633061         0.279276         0.868459
 H        -0.302205        -0.139601         1.097046
 H        -0.341754         1.355182        -0.002869
 H        -0.724761        -0.187024        -0.552698
 H         1.279142        -2.075692         1.090335
 H         1.768835        -2.385723        -0.701449
 H         3.826437        -2.671315         1.767984
 H         4.861995         0.150831        -0.045596
 H         3.407008         1.593475        -1.788388
 H         3.495015        -0.162109        -2.351303
 H         2.630934         1.081446         1.659413
