19
Iteration:   731charge 0 multiplicity 1
 C        -0.093468         0.027819         0.035474
 C         1.445462        -0.112743         0.003266
 C         1.931907        -1.518159         0.090436
 C         3.221846        -1.111182         0.682267
 O         4.262277        -1.856669         1.387164
 C         3.688536         0.067595        -0.192903
 C         3.225528         0.198384        -1.550847
 O         1.818598         0.598670        -1.344639
 C         2.645992         0.312479         0.937391
 H        -0.490282        -0.628643         0.852302
 H        -0.446187         1.049869         0.375199
 H        -0.411125        -0.176139        -0.988920
 H         1.343494        -2.116831         0.880784
 H         1.836675        -2.082004        -0.887368
 H         3.845526        -2.239028         2.175721
 H         4.724227         0.362422         0.000149
 H         3.579701         0.948338        -2.274806
 H         3.405284        -0.637709        -2.274125
 H         2.679797         1.037633         1.768405
