19
Iteration:  4534
 C         0.194741         0.214345         0.360836
 C         1.472518        -0.166534        -0.178607
 C         2.047361        -1.715387        -0.007329
 C         3.190764        -1.173975         0.614341
 O         3.877603        -1.787865         1.623197
 C         3.779801         0.034553        -0.240249
 C         3.155006         0.539515        -1.552618
 O         1.765261         0.370092        -1.496488
 C         2.688784         0.243239         0.808446
 H         0.035113        -0.250226         1.429118
 H         0.175275         1.335320         0.623722
 H        -0.783912         0.107220        -0.179054
 H         1.416720        -2.230448         0.599166
 H         2.137761        -2.350516        -0.851563
 H         4.170870        -2.662543         1.263708
 H         4.734536         0.249809         0.082246
 H         3.489158         1.564584        -1.455265
 H         3.490861         0.117298        -2.532267
 H         2.634250         0.844177         1.697638
