19
Iteration:  2476charge 0 multiplicity 1
 C         0.074696         0.299782         0.254637
 C         1.432041        -0.150272        -0.153376
 C         1.956553        -1.679031         0.072200
 C         3.362543        -1.186404         0.552935
 O         4.141448        -1.798852         1.532687
 C         3.714912         0.047490        -0.170774
 C         3.178576         0.550648        -1.522027
 O         1.730361         0.255379        -1.472030
 C         2.622338         0.232865         0.793571
 H        -0.039726        -0.184273         1.187960
 H         0.016692         1.342281         0.343714
 H        -0.774256        -0.171547        -0.321585
 H         1.356930        -2.200701         0.942809
 H         1.764114        -2.311075        -0.807715
 H         3.453281        -2.312594         2.018811
 H         4.776936         0.337583         0.007595
 H         3.246202         1.606504        -1.304571
 H         3.649273        -0.007359        -2.331052
 H         2.649124         0.960954         1.723645
