19
Iteration:  2250
 C         0.025712         0.159022         0.009254
 C         1.514138        -0.065337         0.004621
 C         1.889217        -1.635397         0.170997
 C         3.165222        -1.108847         0.652923
 O         4.168112        -1.874318         1.306816
 C         3.717213         0.167029        -0.073111
 C         3.151710         0.263103        -1.579668
 O         1.756180         0.457752        -1.337444
 C         2.694579         0.318103         0.986818
 H        -0.344128        -0.089345         0.998541
 H        -0.167449         1.181212        -0.242039
 H        -0.301623        -0.617455        -0.658493
 H         1.426816        -2.069270         1.047488
 H         2.011121        -2.346162        -0.752633
 H         4.479796        -2.478736         0.616147
 H         4.691199         0.398015         0.196309
 H         3.501416         1.098371        -2.113776
 H         3.502520        -0.695567        -2.141941
 H         2.656818         0.871655         1.851937
