19
Iteration:  1945charge 0 multiplicity 1
 C        -0.005179         0.155182         0.111443
 C         1.462669        -0.109859        -0.008338
 C         1.925372        -1.598344        -0.005330
 C         3.260423        -1.115110         0.656274
 O         4.217667        -1.784593         1.464813
 C         3.778411         0.041313        -0.145855
 C         3.116508         0.177944        -1.530945
 O         1.765068         0.530519        -1.331298
 C         2.635696         0.321615         0.833772
 H        -0.365705        -0.041667         1.102374
 H        -0.115611         1.203058        -0.062854
 H        -0.661637        -0.396662        -0.587996
 H         1.329976        -2.104171         0.685104
 H         1.924715        -2.035437        -0.944846
 H         4.010162        -2.747674         1.479969
 H         4.821260         0.395805        -0.050804
 H         3.602170         0.947033        -2.211435
 H         3.113570        -0.766114        -1.939114
 H         2.677940         0.899548         1.833509
