19
Iteration:     2charge 0 multiplicity 1
 C         0.033125         0.161463         0.216544
 C         1.477601        -0.151346        -0.129342
 C         1.959878        -1.647100        -0.016785
 C         3.234742        -1.102753         0.638629
 O         4.019042        -1.786642         1.543899
 C         3.754621         0.100845        -0.146796
 C         3.212042         0.364798        -1.531123
 O         1.797163         0.384759        -1.395361
 C         2.615664         0.258254         0.844751
 H        -0.176568        -0.237970         1.226554
 H        -0.115832         1.276948         0.245949
 H        -0.607599        -0.293357        -0.516379
 H         1.404397        -2.171464         0.723506
 H         2.049310        -2.175617        -0.919311
 H         4.649668        -2.343112         1.060537
 H         4.748632         0.478565         0.130184
 H         3.574499         1.325968        -1.955003
 H         3.505238        -0.406798        -2.248956
 H         2.592752         0.919100         1.737125
