19
Iteration:  2265charge 0 multiplicity 1
 C         0.031906         0.218726         0.089423
 C         1.453437        -0.193330        -0.028054
 C         1.910311        -1.644775         0.152836
 C         3.245273        -1.078735         0.688017
 O         4.192174        -1.847197         1.347857
 C         3.682322         0.038253        -0.166817
 C         3.187069         0.316309        -1.527522
 O         1.813564         0.460481        -1.301740
 C         2.570311         0.278565         0.878493
 H        -0.482764         0.190775         1.085324
 H         0.011993         1.262259        -0.336807
 H        -0.578572        -0.358087        -0.589096
 H         1.195305        -2.156781         0.878956
 H         1.898891        -2.133612        -0.813574
 H         4.790221        -2.217103         0.653617
 H         4.817920         0.379322         0.055919
 H         3.634000         1.306950        -1.891019
 H         3.281534        -0.598320        -2.190375
 H         2.514596         1.041762         1.748692
