19
Iteration:   194charge 0 multiplicity 1
 C         0.187751         0.239007         0.313632
 C         1.501079        -0.286599        -0.144854
 C         1.863506        -1.704320        -0.115701
 C         3.267558        -1.137595         0.679786
 O         4.000002        -1.782516         1.658877
 C         3.702089         0.089567        -0.220253
 C         3.177774         0.556164        -1.573517
 O         1.803363         0.325356        -1.515244
 C         2.593070         0.098550         0.869943
 H        -0.045156        -0.190506         1.350040
 H         0.192225         1.333192         0.486514
 H        -0.761035         0.124682        -0.494286
 H         1.309919        -2.269332         0.613167
 H         2.188157        -1.953296        -1.098823
 H         4.890487        -1.489402         1.811127
 H         4.670331         0.582645         0.136664
 H         3.295254         1.709076        -1.580513
 H         3.561736         0.008712        -2.512787
 H         2.465001         0.935718         1.647454
