19
Iteration:  3990charge 0 multiplicity 1
 C         0.062550         0.123868         0.304027
 C         1.497727        -0.104517        -0.139636
 C         2.031754        -1.666783        -0.159149
 C         3.168772        -1.146034         0.666739
 O         3.978892        -1.781066         1.506001
 C         3.798625         0.036574        -0.169667
 C         3.157706         0.271011        -1.483835
 O         1.767627         0.558857        -1.323824
 C         2.680506         0.284903         0.837613
 H        -0.040932         0.039583         1.396322
 H        -0.245453         1.176032         0.293795
 H        -0.605145        -0.567766        -0.217230
 H         1.341415        -2.419162         0.360573
 H         2.296988        -2.196506        -1.090454
 H         4.451234        -2.463581         0.977040
 H         4.738587         0.357582         0.136381
 H         3.596283         1.208692        -2.050372
 H         3.128718        -0.508237        -2.239772
 H         2.758580         1.099749         1.619725
