19
Iteration:  4791charge 0 multiplicity 1
 C        -0.061581         0.299042         0.088432
 C         1.451995        -0.016624        -0.022004
 C         1.855855        -1.580721         0.100160
 C         3.231831        -1.118927         0.571712
 O         4.237260        -1.795814         1.191687
 C         3.724447         0.068565        -0.040868
 C         3.274362         0.076086        -1.452938
 O         1.761861         0.397205        -1.290292
 C         2.655589         0.316981         0.887739
 H        -0.608038        -0.115848         0.950968
 H        -0.157224         1.387618        -0.002177
 H        -0.120114        -0.078848        -0.983417
 H         1.237957        -1.934675         0.908951
 H         1.675802        -2.232978        -0.653088
 H         3.980611        -2.399077         1.929186
 H         4.794384         0.284382         0.272568
 H         3.796888         0.852000        -2.009360
 H         3.259768        -1.003417        -1.914844
 H         2.710059         0.843295         1.853670
