19
Iteration:  4141
 C         0.052387         0.119576         0.266403
 C         1.470192        -0.044377        -0.126558
 C         1.890681        -1.512087        -0.064844
 C         3.244638        -1.145728         0.647306
 O         4.118802        -1.885602         1.595154
 C         3.755826         0.002897        -0.170709
 C         3.215035         0.294420        -1.531256
 O         1.738765         0.522823        -1.396967
 C         2.653622         0.264401         0.829453
 H        -0.120832        -0.250727         1.334862
 H        -0.352529         1.067010        -0.015394
 H        -0.627670        -0.524055        -0.297893
 H         1.245321        -2.187067         0.545216
 H         1.990966        -1.991791        -1.059598
 H         4.599505        -2.354478         0.883345
 H         4.747831         0.382850         0.206330
 H         3.586304         1.212654        -1.951563
 H         3.249876        -0.522668        -2.295543
 H         2.712222         0.980132         1.657140
