19
Iteration:  3600
 C        -0.032375         0.018767         0.283936
 C         1.497700        -0.106964        -0.065691
 C         1.980243        -1.594782        -0.044050
 C         3.277066        -1.124712         0.671571
 O         3.983282        -1.846294         1.536484
 C         3.766596         0.052145        -0.206127
 C         3.213424         0.315276        -1.583568
 O         1.784677         0.624361        -1.341820
 C         2.683864         0.291015         0.837766
 H        -0.287330        -0.847860         0.840201
 H        -0.333887         1.019170         0.714413
 H        -0.697529        -0.245128        -0.596633
 H         1.286468        -2.221835         0.471240
 H         2.125958        -2.117323        -1.052217
 H         4.576487        -2.443104         1.049350
 H         4.786032         0.458980         0.129419
 H         3.777660         1.040572        -2.263968
 H         3.266424        -0.653771        -2.301617
 H         2.712221         1.115946         1.547861
