19
Iteration:  4745charge 0 multiplicity 1
 C         0.082358         0.174178         0.308033
 C         1.475034        -0.059846        -0.060913
 C         2.005990        -1.594103         0.016242
 C         3.256192        -1.111752         0.626448
 O         4.011974        -1.944419         1.508666
 C         3.820780         0.005377        -0.200313
 C         3.150413         0.321497        -1.536497
 O         1.749317         0.471729        -1.440680
 C         2.650252         0.365394         0.724564
 H         0.123020         0.013477         1.342374
 H        -0.160794         1.233326         0.174973
 H        -0.543404        -0.528873        -0.342972
 H         1.446848        -2.151682         0.718766
 H         2.023415        -2.184974        -0.848306
 H         3.410004        -2.393678         2.143189
 H         4.747186         0.396074         0.057214
 H         3.552163         1.300161        -1.909022
 H         3.466711        -0.590837        -2.172422
 H         2.603718         1.014004         1.578983
