19
Iteration:   936
 C         0.174967         0.202460         0.388097
 C         1.481019        -0.179875        -0.129164
 C         2.031222        -1.653092        -0.038120
 C         3.188575        -1.095838         0.666657
 O         4.025664        -1.857529         1.508149
 C         3.768703         0.176858        -0.152300
 C         3.204884         0.532293        -1.526185
 O         1.739932         0.216315        -1.500264
 C         2.589745         0.279189         0.777862
 H         0.001281         0.154154         1.470053
 H         0.053551         1.223514        -0.004793
 H        -0.689284        -0.315362        -0.139712
 H         1.390273        -2.249310         0.659087
 H         2.320776        -2.386043        -0.827742
 H         3.402819        -2.465840         1.920325
 H         4.813530         0.302184         0.027464
 H         3.303856         1.586499        -1.881053
 H         3.611706         0.056852        -2.414075
 H         2.414733         0.953906         1.584974
