19
Iteration:   387
 C        -0.074048         0.103265         0.123941
 C         1.399895        -0.186707        -0.091624
 C         1.993397        -1.664517         0.056984
 C         3.333567        -1.118933         0.620930
 O         4.078785        -1.798138         1.613195
 C         3.788560         0.093374        -0.224779
 C         3.221697         0.410838        -1.571754
 O         1.793318         0.472265        -1.322037
 C         2.658277         0.287948         0.784122
 H        -0.347879        -0.536581         0.968922
 H        -0.343661         1.117500         0.381276
 H        -0.643343        -0.229573        -0.671827
 H         1.185320        -2.076829         0.797399
 H         1.974531        -2.212300        -0.928331
 H         4.052675        -2.728273         1.375245
 H         4.708967         0.694892         0.079837
 H         3.565252         1.288237        -2.077182
 H         3.576890        -0.378116        -2.306369
 H         2.607230         0.928538         1.723143
