19
Iteration:  2899charge 0 multiplicity 1
 C         0.045464         0.157401         0.378425
 C         1.423843        -0.189820        -0.145383
 C         1.968063        -1.720717        -0.088586
 C         3.262192        -1.089822         0.522387
 O         4.030301        -1.758359         1.531991
 C         3.860555         0.024578        -0.193230
 C         3.234442         0.386708        -1.513419
 O         1.751213         0.439845        -1.357172
 C         2.657663         0.282083         0.762542
 H        -0.156969        -0.196463         1.354372
 H         0.111701         1.203711         0.450174
 H        -0.742978        -0.428605        -0.094754
 H         1.436296        -2.336632         0.677134
 H         1.973080        -2.201563        -1.174060
 H         3.286626        -2.059039         2.100906
 H         4.852418         0.427964         0.277427
 H         3.541002         1.486496        -1.792487
 H         3.390037        -0.234058        -2.451992
 H         2.523172         0.980873         1.545182
