19
Iteration:  3004
 C         0.059616         0.154898         0.165972
 C         1.449599        -0.144828        -0.029807
 C         1.948834        -1.650947        -0.009673
 C         3.227276        -1.091107         0.674264
 O         4.137423        -1.939398         1.310501
 C         3.739270         0.121186        -0.059129
 C         3.226819         0.286964        -1.536859
 O         1.764598         0.471165        -1.357099
 C         2.565648         0.338891         0.890606
 H        -0.121999        -0.069142         1.233245
 H        -0.289620         1.192545        -0.127549
 H        -0.519999        -0.383126        -0.553320
 H         1.325963        -2.266341         0.621475
 H         2.045597        -2.077140        -0.960330
 H         4.475947        -1.556330         2.143405
 H         4.747152         0.585285         0.271500
 H         3.477678         1.197377        -2.073902
 H         3.403906        -0.620205        -2.222247
 H         2.559094         1.054354         1.633857
