19
Iteration:  3016charge 0 multiplicity 1
 C        -0.076087         0.125793         0.203672
 C         1.470381        -0.161217        -0.068098
 C         1.994162        -1.602267        -0.044229
 C         3.261910        -1.083101         0.657886
 O         4.114703        -1.941826         1.428518
 C         3.714693         0.055273        -0.220217
 C         3.192352         0.363799        -1.561588
 O         1.830186         0.494622        -1.314197
 C         2.585254         0.277659         0.892739
 H        -0.444917        -0.008220         1.246614
 H        -0.031080         1.290199         0.067951
 H        -0.769914        -0.542626        -0.284670
 H         1.419572        -2.224513         0.570665
 H         2.110834        -2.021851        -0.997520
 H         4.415319        -1.396922         2.177031
 H         4.844265         0.305103         0.104790
 H         3.749969         1.210977        -1.950242
 H         3.506265        -0.523291        -2.264836
 H         2.509460         1.100805         1.544778
