19
Iteration:  2893charge 0 multiplicity 1
 C         0.056550         0.111675         0.383906
 C         1.460542        -0.184712        -0.102060
 C         2.003234        -1.657296        -0.111602
 C         3.229916        -1.095327         0.576037
 O         4.004062        -1.750785         1.494297
 C         3.849789         0.025266        -0.208267
 C         3.264000         0.376225        -1.546517
 O         1.741720         0.444729        -1.395260
 C         2.609385         0.284206         0.799904
 H         0.016166        -0.167772         1.504492
 H         0.082331         1.254090         0.422260
 H        -0.846964        -0.340692        -0.156771
 H         1.351146        -2.269491         0.523370
 H         2.134984        -2.203950        -0.985578
 H         3.401577        -2.207548         2.113411
 H         4.719911         0.473858         0.117480
 H         3.570702         1.337399        -1.799112
 H         3.405241        -0.442937        -2.249019
 H         2.693907         0.897289         1.786060
