19
Iteration:  4132charge 0 multiplicity 1
 C         0.041042         0.199768         0.280682
 C         1.451989        -0.079701        -0.098198
 C         1.956630        -1.610179        -0.103673
 C         3.202788        -1.141550         0.660195
 O         4.115029        -1.893029         1.609281
 C         3.765060         0.043911        -0.164161
 C         3.189627         0.339039        -1.581623
 O         1.717462         0.479804        -1.418670
 C         2.645045         0.241442         0.833743
 H        -0.167747         0.215525         1.436303
 H        -0.153254         1.325549         0.103062
 H        -0.625637        -0.539229        -0.284665
 H         1.261805        -2.260190         0.493456
 H         2.000484        -2.058523        -1.018908
 H         4.865845        -2.299961         1.120043
 H         4.884305         0.318285         0.004886
 H         3.611989         1.246440        -1.810155
 H         3.553324        -0.252492        -2.393186
 H         2.557799         0.754782         1.748385
