19
Iteration:   583
 C        -0.047397         0.100435         0.134685
 C         1.505913        -0.109549        -0.054574
 C         1.987686        -1.649319        -0.019060
 C         3.262773        -1.019580         0.671875
 O         4.165724        -1.918751         1.329880
 C         3.724708         0.192576        -0.054146
 C         3.202701         0.204205        -1.528596
 O         1.836118         0.424977        -1.294894
 C         2.560787         0.443280         0.841020
 H        -0.401802         0.019128         1.217023
 H        -0.304860         1.162162        -0.212078
 H        -0.748149        -0.552391        -0.472727
 H         1.376728        -2.229412         0.581437
 H         2.228915        -2.183745        -0.892557
 H         3.584050        -2.503496         1.840831
 H         4.702501         0.570652         0.256842
 H         3.514319         0.999470        -2.143142
 H         3.409800        -0.722494        -1.909414
 H         2.394747         1.151295         1.646195
