19
Iteration:  1284
 C         0.063739         0.130385         0.366214
 C         1.479026        -0.153366        -0.138228
 C         1.966579        -1.633688        -0.052159
 C         3.222465        -1.136112         0.603535
 O         4.043639        -1.772927         1.535741
 C         3.778696         0.051056        -0.194200
 C         3.266964         0.381561        -1.573298
 O         1.737719         0.442600        -1.474883
 C         2.641882         0.227347         0.824445
 H        -0.151453        -0.008383         1.487833
 H        -0.144686         1.222971         0.141980
 H        -0.671484        -0.663700        -0.070791
 H         1.308363        -2.121565         0.674218
 H         2.105081        -2.269376        -0.909629
 H         3.503565        -1.889674         2.355042
 H         4.808701         0.406915         0.025801
 H         3.530741         1.428513        -1.684740
 H         3.789952        -0.248069        -2.414347
 H         2.529782         0.772729         1.742141
