19
Iteration:  3835
 C        -0.005061         0.095964         0.373592
 C         1.478677        -0.044302        -0.048904
 C         2.015819        -1.596513        -0.082991
 C         3.273243        -1.119340         0.589854
 O         3.926895        -1.946783         1.552904
 C         3.768965         0.051891        -0.177678
 C         3.264448         0.366538        -1.562674
 O         1.736777         0.504192        -1.422766
 C         2.683674         0.263126         0.823399
 H        -0.239938        -0.302822         1.391484
 H        -0.332390         1.086126         0.172384
 H        -0.598301        -0.560889        -0.225940
 H         1.331623        -2.379197         0.450919
 H         2.214920        -1.920783        -1.135338
 H         4.839764        -2.120780         1.277383
 H         4.629953         0.701069         0.234924
 H         3.454946         1.382713        -2.034315
 H         3.537804        -0.227266        -2.414639
 H         2.918351         0.964616         1.598023
