19
Iteration:  2750
 C         0.146317         0.180415         0.344281
 C         1.450508        -0.193686        -0.067029
 C         1.960300        -1.580373        -0.048231
 C         3.257862        -1.066404         0.559701
 O         4.076688        -1.830904         1.455268
 C         3.693428         0.174431        -0.086713
 C         3.246776         0.387176        -1.554724
 O         1.756199         0.258694        -1.469248
 C         2.592645         0.284310         0.785978
 H         0.252877        -0.123964         1.416990
 H        -0.062656         1.262300         0.323093
 H        -0.702190        -0.176345        -0.337653
 H         1.445914        -2.170936         0.774676
 H         1.890487        -2.266777        -0.859102
 H         3.441406        -2.199271         2.110286
 H         4.723556         0.465217         0.321012
 H         3.406817         1.415417        -1.822587
 H         3.560173        -0.425625        -2.240393
 H         2.686416         0.892362         1.693780
