19
Iteration:  4682
 C         0.145790         0.265782         0.332999
 C         1.471207        -0.152855        -0.166045
 C         1.977094        -1.657752        -0.036468
 C         3.240741        -1.139850         0.688514
 O         4.037605        -1.887730         1.496502
 C         3.718398        -0.016006        -0.174976
 C         3.237289         0.447193        -1.532530
 O         1.724858         0.400952        -1.456527
 C         2.600650         0.234863         0.756113
 H        -0.152436        -0.200649         1.256755
 H         0.152367         1.355782         0.396179
 H        -0.855488         0.151308        -0.266304
 H         1.343597        -2.187858         0.796933
 H         2.130988        -2.350888        -0.851799
 H         4.250101        -1.436662         2.327280
 H         4.612446         0.381160         0.156862
 H         3.602379         1.400574        -1.742640
 H         3.472860        -0.270580        -2.347895
 H         2.687484         0.910841         1.580638
