19
Iteration:  4808charge 0 multiplicity 1
 C        -0.007355         0.389782         0.064924
 C         1.425778        -0.131980        -0.031861
 C         1.783550        -1.633620         0.152062
 C         3.226509        -1.112104         0.632834
 O         4.272346        -1.866276         1.242297
 C         3.740119         0.096572        -0.079121
 C         3.217776         0.244902        -1.507373
 O         1.834733         0.315410        -1.374930
 C         2.633903         0.266196         0.939568
 H        -0.523853         0.041862         0.977089
 H        -0.053721         1.474520         0.247609
 H        -0.674044         0.117479        -0.755416
 H         1.310100        -2.058491         1.071880
 H         1.757750        -2.188413        -0.917202
 H         4.019453        -2.143660         2.156609
 H         4.734361         0.361042         0.108791
 H         3.483379         1.138580        -2.123187
 H         3.476604        -0.609209        -2.074933
 H         2.663595         0.987762         1.739005
