19
Iteration:   297
 C        -0.042617         0.156582         0.081990
 C         1.544808        -0.146054        -0.038571
 C         1.955769        -1.670967         0.062067
 C         3.244830        -1.082235         0.605743
 O         4.058059        -1.910845         1.472465
 C         3.747727         0.131064        -0.125009
 C         3.202037         0.355384        -1.556096
 O         1.822131         0.444900        -1.324461
 C         2.594252         0.300846         0.902808
 H        -0.377148         0.085948         1.099046
 H        -0.279887         1.141659        -0.335358
 H        -0.525145        -0.608310        -0.396985
 H         1.258683        -2.225638         0.705723
 H         1.975117        -2.233412        -0.940316
 H         4.982565        -1.594678         1.426921
 H         4.782993         0.367045        -0.041221
 H         3.420839         1.225181        -2.102380
 H         3.478413        -0.498972        -2.246544
 H         2.379390         1.009884         1.643943
