19
Iteration:  4421charge 0 multiplicity 1
 C         0.063495         0.235069         0.290575
 C         1.477461        -0.131476        -0.101088
 C         1.866464        -1.650981         0.105610
 C         3.167089        -1.073751         0.563229
 O         3.955583        -1.906182         1.420852
 C         3.762663         0.121221        -0.167897
 C         3.244008         0.472395        -1.494330
 O         1.841227         0.274510        -1.508729
 C         2.700027         0.260875         0.910598
 H         0.104223        -0.002115         1.341922
 H        -0.241819         1.237698        -0.093081
 H        -0.669854        -0.468874        -0.125807
 H         1.400359        -2.235434         0.869445
 H         1.865075        -2.363762        -0.693595
 H         4.887525        -1.584694         1.370856
 H         4.903985         0.265349         0.001743
 H         3.409102         1.538603        -1.675261
 H         3.610281        -0.193455        -2.310111
 H         2.740521         0.857095         1.800362
