19
Iteration:  3966charge 0 multiplicity 1
 C         0.140160         0.126457         0.455910
 C         1.500899        -0.189619        -0.150635
 C         1.909193        -1.638819        -0.100722
 C         3.246055        -1.201072         0.577906
 O         3.919678        -1.841155         1.621092
 C         3.738959         0.103158        -0.205128
 C         3.281228         0.474360        -1.598139
 O         1.786783         0.455350        -1.482999
 C         2.626055         0.242087         0.809487
 H         0.213424         0.042986         1.653033
 H        -0.167026         1.197795         0.540615
 H        -0.653969        -0.526530         0.030735
 H         1.225971        -2.227565         0.557866
 H         1.894660        -2.081896        -1.036260
 H         4.809904        -2.123714         1.347198
 H         4.717813         0.334815         0.138360
 H         3.592552         1.573662        -1.725645
 H         3.454350        -0.130472        -2.489615
 H         2.433319         0.863610         1.672759
