19
Iteration:  1316charge 0 multiplicity 1
 C        -0.066659         0.079902         0.121449
 C         1.469875        -0.108526         0.027091
 C         1.967569        -1.593413         0.088993
 C         3.268387        -1.068116         0.676469
 O         4.134811        -1.894147         1.375288
 C         3.772333         0.092234        -0.144909
 C         3.240225         0.220636        -1.594034
 O         1.747941         0.536731        -1.352170
 C         2.675367         0.366832         0.898063
 H        -0.545068         0.175574         1.124750
 H        -0.213989         0.970707        -0.548404
 H        -0.496855        -0.721717        -0.602800
 H         1.325308        -2.150007         0.824696
 H         2.101583        -2.201063        -0.841061
 H         3.586863        -2.419768         1.978136
 H         4.818103         0.393235        -0.007877
 H         3.465245         1.098911        -2.154883
 H         3.498596        -0.695037        -2.265171
 H         2.558609         1.151387         1.617278
