19
Iteration:   438
 C        -0.064275         0.097622         0.173203
 C         1.392595        -0.132456        -0.098425
 C         1.922253        -1.602926        -0.066188
 C         3.223144        -1.070412         0.682912
 O         4.172240        -1.853507         1.507813
 C         3.769073         0.198114        -0.073182
 C         3.256188         0.242239        -1.535050
 O         1.803004         0.475888        -1.407591
 C         2.644904         0.266835         0.903877
 H        -0.401228         0.000876         1.262814
 H        -0.487697         1.066323        -0.324751
 H        -0.615662        -0.772082        -0.266095
 H         1.400220        -2.072122         0.670398
 H         1.830597        -2.096334        -1.022759
 H         4.673958        -2.348968         0.828340
 H         4.699417         0.573020         0.446444
 H         3.703427         0.987630        -2.212466
 H         3.448383        -0.702660        -2.036209
 H         2.562021         1.174430         1.579556
