19
Iteration:  1359charge 0 multiplicity 1
 C        -0.024372         0.239267         0.175254
 C         1.483170        -0.138319        -0.026834
 C         1.855563        -1.598219         0.121752
 C         3.201661        -1.108258         0.643821
 O         4.274505        -1.848108         1.241180
 C         3.667790         0.171588        -0.048670
 C         3.274432         0.232189        -1.477772
 O         1.837027         0.328636        -1.422267
 C         2.533909         0.374285         0.837572
 H        -0.511990        -0.133351         1.101619
 H         0.069035         1.302721         0.085319
 H        -0.494997        -0.237100        -0.702677
 H         1.197572        -2.002054         0.968153
 H         1.798939        -2.185315        -0.873558
 H         3.950803        -2.450632         1.919970
 H         4.645236         0.494710         0.270789
 H         3.811925         0.988336        -2.014321
 H         3.573514        -0.720685        -1.940445
 H         2.418051         0.937512         1.739976
