19
Iteration:  2566charge 0 multiplicity 1
 C         0.027533         0.126814         0.194508
 C         1.519598        -0.114322        -0.049169
 C         1.979557        -1.618295         0.055136
 C         3.217868        -1.075842         0.675669
 O         4.114764        -1.851833         1.349766
 C         3.727696         0.039998        -0.111617
 C         3.188681         0.300995        -1.558647
 O         1.778710         0.437984        -1.373808
 C         2.632465         0.372009         0.834946
 H        -0.177460        -0.140681         1.230693
 H        -0.344356         1.102977        -0.062434
 H        -0.443744        -0.612897        -0.436264
 H         1.305868        -2.099218         0.766294
 H         2.019989        -2.265288        -0.852033
 H         3.833434        -2.209908         2.215750
 H         4.697485         0.485366        -0.012328
 H         3.428603         1.290863        -1.974847
 H         3.336500        -0.601849        -2.174342
 H         2.673423         1.050468         1.557603
