19
Iteration:  1038
 C        -0.108302         0.157263         0.097569
 C         1.412548        -0.102275        -0.094321
 C         2.109346        -1.626575         0.028082
 C         3.290185        -1.066016         0.693347
 O         4.201783        -1.843140         1.297367
 C         3.663481         0.202928        -0.122902
 C         3.215634         0.126695        -1.454482
 O         1.804665         0.463521        -1.312935
 C         2.583058         0.336469         0.915765
 H        -0.707250        -0.506825         0.846541
 H        -0.127519         1.154270         0.641443
 H        -0.667626         0.069395        -0.842570
 H         1.570880        -2.175446         0.797875
 H         2.108111        -2.186364        -0.855873
 H         3.577258        -2.534785         1.643311
 H         4.748918         0.380273         0.131344
 H         3.527748         0.840848        -2.166809
 H         3.264305        -0.875223        -1.798468
 H         2.760340         1.324516         1.461868
