19
Iteration:  3773
 C        -0.014951         0.166799         0.372984
 C         1.429875        -0.166422        -0.170641
 C         1.956707        -1.620332        -0.117983
 C         3.263570        -1.166872         0.586997
 O         4.030569        -1.914792         1.528473
 C         3.753783         0.077566        -0.140707
 C         3.209952         0.442582        -1.555495
 O         1.809202         0.421795        -1.372437
 C         2.615743         0.275509         0.818947
 H        -0.082309        -0.328001         1.329100
 H        -0.020408         1.296657         0.620410
 H        -0.930575         0.071601        -0.291686
 H         1.292774        -2.229247         0.548424
 H         2.130576        -1.961255        -1.152731
 H         4.950993        -1.617611         1.425420
 H         4.812345         0.284966         0.271208
 H         3.590812         1.411913        -1.792729
 H         3.665884        -0.329844        -2.286565
 H         2.710150         0.925429         1.668799
