19
Iteration:  2346charge 0 multiplicity 1
 C         0.060400         0.063431         0.481990
 C         1.492806        -0.106463        -0.173878
 C         2.031453        -1.590459        -0.086114
 C         3.273416        -1.101792         0.667775
 O         3.951290        -1.815908         1.689915
 C         3.758182         0.045785        -0.215396
 C         3.192307         0.385672        -1.679831
 O         1.734247         0.460634        -1.505890
 C         2.678306         0.253514         0.812932
 H        -0.040337        -0.478764         1.426465
 H         0.079977         1.130456         0.696624
 H        -0.819022        -0.114847        -0.316438
 H         1.505831        -2.177793         0.670912
 H         2.050224        -2.100079        -1.063922
 H         4.082203        -2.713290         1.324345
 H         4.695006         0.394067        -0.084990
 H         3.675288         1.389708        -1.965144
 H         3.454007        -0.250407        -2.529970
 H         2.641815         0.964144         1.578083
