19
Iteration:  3976
 C         0.138687         0.121999         0.435476
 C         1.501445        -0.147480        -0.122733
 C         1.977407        -1.659531        -0.120754
 C         3.149186        -1.115704         0.631589
 O         3.940925        -1.814994         1.583430
 C         3.737098         0.021651        -0.188840
 C         3.230956         0.427548        -1.627837
 O         1.788123         0.507639        -1.402147
 C         2.621500         0.251287         0.823715
 H         0.132401        -0.223898         1.588354
 H        -0.074132         1.145846         0.057289
 H        -0.679691        -0.534524         0.020909
 H         1.319071        -2.343503         0.396369
 H         2.152458        -2.081491        -1.076211
 H         4.668843        -2.184697         1.061581
 H         4.779718         0.216131         0.077723
 H         3.669794         1.359807        -1.967632
 H         3.657094        -0.276527        -2.390215
 H         2.564908         0.800253         1.735610
