19
Iteration:  3939charge 0 multiplicity 1
 C         0.089166         0.228579         0.388716
 C         1.472357        -0.210067        -0.119445
 C         1.974242        -1.666898         0.009604
 C         3.238394        -1.123891         0.523645
 O         3.863053        -1.859984         1.516359
 C         3.826853         0.095131        -0.210128
 C         3.240663         0.593664        -1.508984
 O         1.785968         0.260714        -1.461197
 C         2.672211         0.247451         0.797639
 H        -0.080118        -0.100528         1.397769
 H         0.018547         1.304905         0.584434
 H        -0.711762        -0.078058        -0.300851
 H         1.511636        -2.109186         0.891653
 H         1.919689        -2.294549        -0.956198
 H         4.726941        -2.132384         1.153680
 H         4.802023         0.404448         0.249764
 H         3.305633         1.637169        -1.483653
 H         3.508304         0.094687        -2.459420
 H         2.581794         0.636356         1.827650
