19
Iteration:  2758
 C         0.206117         0.233731         0.338244
 C         1.519418        -0.168933        -0.167159
 C         1.881109        -1.658799        -0.017736
 C         3.255579        -1.059539         0.544525
 O         4.088519        -1.847062         1.445890
 C         3.741253         0.203370        -0.099970
 C         3.187583         0.436488        -1.498129
 O         1.750428         0.186057        -1.469944
 C         2.565147         0.282901         0.835872
 H        -0.048033        -0.126433         1.327755
 H         0.178176         1.288174         0.418457
 H        -0.616704        -0.330121        -0.216769
 H         1.508128        -2.083691         0.859492
 H         1.770973        -2.163708        -0.942248
 H         3.527411        -2.198491         2.171794
 H         4.638560         0.608099         0.284352
 H         3.410953         1.484273        -1.755579
 H         3.627082        -0.323187        -2.210504
 H         2.450331         0.933706         1.574857
