19
Iteration:  1520
 C         0.042879         0.298189         0.113415
 C         1.466475        -0.115317        -0.078355
 C         1.859546        -1.657179         0.186659
 C         3.284935        -1.150805         0.632286
 O         4.212171        -1.821493         1.440901
 C         3.739693         0.082400        -0.190053
 C         3.187803         0.447901        -1.518796
 O         1.744668         0.247935        -1.463845
 C         2.641916         0.298160         0.885082
 H        -0.400309        -0.045618         1.083930
 H        -0.229635         1.351783         0.099230
 H        -0.591300        -0.298203        -0.511359
 H         1.401853        -2.105066         1.016064
 H         1.787317        -2.303894        -0.644455
 H         3.781815        -2.659476         1.684993
 H         4.775932         0.268730        -0.003496
 H         3.490926         1.494694        -1.764275
 H         3.582355        -0.251639        -2.296544
 H         2.560924         1.034150         1.702750
