19
Iteration:  1135
 C         0.058328         0.221377         0.274623
 C         1.454427        -0.178362        -0.090327
 C         1.973544        -1.696907        -0.112267
 C         3.243462        -1.067561         0.633938
 O         4.130974        -1.872925         1.449147
 C         3.771254         0.150956        -0.120013
 C         3.232473         0.422588        -1.532274
 O         1.760682         0.304847        -1.436110
 C         2.583942         0.314762         0.903333
 H        -0.049875         0.547804         1.367730
 H        -0.315142         1.055413        -0.372213
 H        -0.745055        -0.525465         0.092277
 H         1.412426        -2.320062         0.702590
 H         2.043316        -2.416143        -1.040273
 H         3.530611        -2.303627         2.097068
 H         4.679390         0.673889         0.199849
 H         3.511671         1.531945        -1.824783
 H         3.449946        -0.269483        -2.408396
 H         2.554961         0.859096         1.854417
