19
Iteration:  4138charge 0 multiplicity 1
 C         0.055552         0.138489         0.272947
 C         1.458571        -0.044735        -0.119482
 C         1.907084        -1.524453        -0.066580
 C         3.233132        -1.140174         0.648349
 O         4.126871        -1.894354         1.612165
 C         3.763117         0.018225        -0.169925
 C         3.208366         0.294960        -1.530511
 O         1.723477         0.510186        -1.405469
 C         2.651008         0.250281         0.821649
 H        -0.147717        -0.107328         1.278938
 H        -0.277623         1.111075         0.011164
 H        -0.615180        -0.496120        -0.243784
 H         1.273137        -2.226010         0.466143
 H         1.970027        -2.082064        -1.131731
 H         4.669411        -2.324065         0.912308
 H         4.707296         0.315130         0.138145
 H         3.646322         1.317449        -1.964928
 H         3.343456        -0.443832        -2.411377
 H         2.642617         0.926352         1.737697
