19
Iteration:  3664
 C         0.130516         0.197740         0.418498
 C         1.482643        -0.181958        -0.161541
 C         1.994309        -1.740430        -0.108942
 C         3.235689        -1.132664         0.521654
 O         3.915366        -1.807291         1.558818
 C         3.778556         0.100704        -0.135291
 C         3.278116         0.538447        -1.545305
 O         1.742855         0.394998        -1.405896
 C         2.603203         0.183949         0.792829
 H         0.085712         0.192936         1.544115
 H         0.053130         1.349932         0.327899
 H        -0.774438        -0.421376         0.058764
 H         1.388922        -2.252222         0.570672
 H         2.063165        -2.325510        -0.976766
 H         4.565143        -2.405398         1.133215
 H         4.807971         0.496151         0.224629
 H         3.385388         1.609724        -1.751166
 H         3.649753        -0.143950        -2.336353
 H         2.341263         0.656158         1.739416
