19
Iteration:  4085
 C         0.116117         0.370127         0.336723
 C         1.458163        -0.215386        -0.139624
 C         1.884508        -1.690863         0.011984
 C         3.269718        -1.152837         0.506510
 O         4.030784        -1.859047         1.495728
 C         3.736480         0.172327        -0.077374
 C         3.159190         0.554014        -1.491130
 O         1.816157         0.157581        -1.527412
 C         2.634082         0.238861         0.869896
 H        -0.172292         0.213475         1.450010
 H         0.210746         1.443707         0.405568
 H        -0.704015         0.022551        -0.260413
 H         1.315785        -2.156767         0.805689
 H         1.731474        -2.400231        -0.880331
 H         4.878080        -2.104148         1.070233
 H         4.708086         0.436125         0.163003
 H         3.369645         1.577547        -1.718215
 H         3.739446         0.031723        -2.309265
 H         2.410170         0.583216         1.937221
