19
Iteration:  2777charge 0 multiplicity 1
 C         0.035591         0.317356         0.291937
 C         1.430012        -0.240055        -0.067729
 C         1.938638        -1.716566         0.089767
 C         3.180074        -1.111304         0.643753
 O         4.139174        -1.827260         1.378236
 C         3.716168         0.162980        -0.137521
 C         3.233328         0.547841        -1.560121
 O         1.838855         0.186911        -1.502637
 C         2.628120         0.254564         0.812054
 H        -0.199632         0.000645         1.315193
 H         0.128162         1.433083         0.398726
 H        -0.771139         0.011512        -0.348556
 H         1.277137        -2.264665         0.820146
 H         2.139684        -2.420444        -0.828150
 H         3.739158        -2.199036         2.193729
 H         4.707343         0.355337         0.124496
 H         3.293739         1.669292        -1.602783
 H         3.696233        -0.047965        -2.335022
 H         2.543497         0.871269         1.740208
