19
Iteration:   930
 C         0.098397         0.196794         0.375706
 C         1.488407        -0.238250        -0.154350
 C         2.020378        -1.664789        -0.056832
 C         3.205915        -1.061588         0.661021
 O         4.042513        -1.847493         1.487740
 C         3.738942         0.137799        -0.145399
 C         3.222429         0.506863        -1.548659
 O         1.780572         0.245176        -1.463282
 C         2.609040         0.314506         0.814389
 H        -0.023004         0.095963         1.510478
 H         0.036354         1.300383         0.096436
 H        -0.790338        -0.214825        -0.117924
 H         1.340769        -2.114539         0.667354
 H         2.241711        -2.295331        -0.903506
 H         3.487850        -2.506168         1.966496
 H         4.800715         0.362782         0.057402
 H         3.305500         1.571592        -1.863230
 H         3.548130        -0.182137        -2.384207
 H         2.425625         1.067416         1.590354
