19
Iteration:  3401
 C        -0.003299         0.095630         0.298136
 C         1.459490        -0.120863        -0.071373
 C         1.911271        -1.621917        -0.052001
 C         3.255970        -1.121643         0.686270
 O         4.024199        -1.889762         1.592179
 C         3.795558         0.166702        -0.167928
 C         3.195496         0.449380        -1.590365
 O         1.781084         0.402309        -1.451602
 C         2.703210         0.216997         0.818715
 H        -0.132790        -0.386032         1.269202
 H        -0.285739         1.098995         0.488854
 H        -0.528029        -0.061634        -0.625682
 H         1.287842        -2.285035         0.573547
 H         2.118560        -1.906376        -1.182660
 H         4.561051        -2.521245         1.062643
 H         4.810042         0.669858         0.108487
 H         3.583279         1.480458        -1.863900
 H         3.348169        -0.229761        -2.436833
 H         2.677728         0.916546         1.673844
