19
Iteration:  1604
 C        -0.025545         0.188174         0.203787
 C         1.479481        -0.143929        -0.071748
 C         2.017151        -1.667238        -0.000390
 C         3.270678        -1.122038         0.580882
 O         4.144814        -1.801109         1.486742
 C         3.717965         0.015700        -0.132757
 C         3.155098         0.241212        -1.576044
 O         1.768135         0.500265        -1.355123
 C         2.660518         0.315986         0.816931
 H        -0.273214        -0.033860         1.268639
 H        -0.242692         1.287759         0.101705
 H        -0.648968        -0.356511        -0.541893
 H         1.343019        -2.107358         0.830250
 H         2.140620        -2.330591        -0.893778
 H         3.772017        -1.823910         2.383665
 H         4.654469         0.390089         0.123294
 H         3.639729         1.124999        -2.106302
 H         3.236463        -0.642245        -2.262137
 H         2.614295         1.122478         1.507301
