19
Iteration:  1482charge 0 multiplicity 1
 C        -0.078641         0.184082         0.158310
 C         1.453498        -0.084945        -0.065666
 C         1.950884        -1.636294         0.042844
 C         3.243930        -1.021675         0.651810
 O         4.198618        -1.873901         1.353946
 C         3.719462         0.101829        -0.111563
 C         3.209706         0.117930        -1.521619
 O         1.795278         0.516854        -1.369816
 C         2.677183         0.372548         0.910997
 H        -0.001980        -0.197417         1.149518
 H        -0.440486         1.151089        -0.226830
 H        -0.647586        -0.439382        -0.597657
 H         1.357050        -2.354862         0.759031
 H         2.160603        -2.188994        -0.954313
 H         3.673980        -2.192844         2.103206
 H         4.788251         0.459987        -0.042691
 H         3.574151         0.751693        -2.291064
 H         3.393291        -0.938101        -1.788771
 H         2.277112         1.021791         1.728553
