19
Iteration:   667
 C         0.102795         0.271131         0.241004
 C         1.430435        -0.117214        -0.159779
 C         1.989556        -1.693957        -0.056013
 C         3.288697        -1.130417         0.617250
 O         4.108653        -1.803848         1.492278
 C         3.747741         0.145142        -0.080453
 C         3.183192         0.487296        -1.485561
 O         1.726069         0.215320        -1.474082
 C         2.589401         0.223584         0.850648
 H        -0.120816        -0.186514         1.231473
 H         0.082767         1.359857         0.438013
 H        -0.662065         0.015849        -0.405708
 H         1.588394        -2.445218         0.745122
 H         1.979960        -2.191133        -1.117670
 H         3.546673        -2.204964         2.194873
 H         4.773071         0.389095         0.189487
 H         3.503965         1.545318        -1.761613
 H         3.780831        -0.190567        -2.272105
 H         2.331763         0.843279         1.700982
