19
Iteration:  4096
 C         0.178496         0.400952         0.339513
 C         1.461662        -0.274534        -0.071789
 C         1.913161        -1.737867        -0.032857
 C         3.306388        -1.146225         0.502343
 O         3.951372        -1.814276         1.478613
 C         3.768922         0.161830        -0.126596
 C         3.220979         0.501747        -1.474908
 O         1.776592         0.224648        -1.424658
 C         2.541855         0.212642         0.784946
 H         0.026981         0.157635         1.451475
 H         0.296951         1.375485        -0.046231
 H        -0.697395         0.079460        -0.186762
 H         1.548704        -2.188529         0.883003
 H         1.815264        -2.416375        -0.968359
 H         4.882845        -2.007885         1.240657
 H         4.674123         0.611672         0.139488
 H         3.226844         1.584942        -1.553273
 H         3.630959        -0.034267        -2.369715
 H         2.383129         0.588967         1.861736
