19
Iteration:  3553
 C         0.059592         0.295188         0.135493
 C         1.433192        -0.141809        -0.010446
 C         1.927881        -1.712265         0.030720
 C         3.167791        -1.112903         0.651669
 O         4.159556        -1.872690         1.316541
 C         3.705086         0.134584        -0.072056
 C         3.246851         0.368978        -1.497339
 O         1.771478         0.338806        -1.356603
 C         2.573303         0.255431         0.949499
 H        -0.523861         0.128868         1.101437
 H         0.198370         1.356005        -0.147472
 H        -0.566175        -0.276470        -0.621502
 H         1.503304        -2.437677         0.701344
 H         2.018793        -2.218073        -0.853822
 H         4.906692        -1.678849         0.727099
 H         4.650756         0.361409         0.286716
 H         3.401757         1.375754        -1.903831
 H         3.661768        -0.342243        -2.308099
 H         2.623474         0.970964         1.782260
