19
Iteration:  1056
 C         0.040229         0.130762         0.174191
 C         1.463294        -0.117246        -0.039976
 C         1.951688        -1.605514         0.022848
 C         3.257941        -1.044856         0.671490
 O         4.166945        -1.832269         1.432945
 C         3.810514         0.124392        -0.124117
 C         3.169012         0.251666        -1.569695
 O         1.768711         0.407903        -1.419317
 C         2.587149         0.355263         0.898326
 H        -0.577549        -0.559022         0.750462
 H        -0.221755         1.003515         0.709467
 H        -0.539398         0.002782        -0.747411
 H         1.327322        -2.158156         0.819663
 H         2.057329        -2.200822        -0.999042
 H         3.769642        -2.728685         1.499257
 H         4.682647         0.662989         0.234074
 H         3.467087         1.227512        -2.125368
 H         3.358361        -0.652866        -2.262627
 H         2.498244         0.817477         1.874115
