19
Iteration:  1631
 C        -0.049500         0.016363         0.149901
 C         1.494712        -0.073240        -0.039145
 C         1.886168        -1.540979         0.045258
 C         3.235596        -1.093482         0.611668
 O         4.167264        -1.779197         1.470319
 C         3.758366         0.060489        -0.138164
 C         3.112999         0.106455        -1.643998
 O         1.832709         0.622397        -1.367020
 C         2.718136         0.335011         0.916561
 H        -0.318001        -0.371843         1.116697
 H        -0.355415         1.042592         0.221825
 H        -0.283821        -0.780826        -0.571489
 H         1.342269        -2.064390         0.759685
 H         2.008192        -2.022497        -0.907747
 H         3.751729        -2.491358         1.983599
 H         4.893208         0.209165         0.043676
 H         3.652520         0.766343        -2.310079
 H         3.050140        -0.906516        -2.093352
 H         2.529993         1.169272         1.647246
