19
Iteration:  4858charge 0 multiplicity 1
 C         0.151341         0.267248         0.409089
 C         1.494626        -0.167142        -0.081450
 C         1.892442        -1.604018        -0.007774
 C         3.188446        -1.125184         0.550500
 O         3.955679        -1.802329         1.579429
 C         3.788644         0.030957        -0.264668
 C         3.255523         0.507840        -1.598499
 O         1.802155         0.195608        -1.464541
 C         2.711963         0.260040         0.760443
 H         0.119049         0.052857         1.553908
 H        -0.077863         1.336273         0.429957
 H        -0.656585        -0.249499        -0.069878
 H         1.273641        -2.069254         0.769473
 H         1.985410        -2.148102        -0.881864
 H         3.298527        -2.312291         2.078158
 H         4.782793         0.483122        -0.037331
 H         3.278038         1.589347        -1.685258
 H         3.640560         0.027633        -2.591380
 H         2.580112         0.702269         1.742328
