19
Iteration:  3689charge 0 multiplicity 1
 C         0.022249         0.201484         0.171313
 C         1.458269        -0.142778        -0.067058
 C         1.882439        -1.617408        -0.016051
 C         3.211199        -1.119126         0.635157
 O         4.138019        -1.912256         1.414217
 C         3.686476         0.062926        -0.114164
 C         3.226177         0.450287        -1.485754
 O         1.799561         0.380352        -1.385852
 C         2.654296         0.264750         0.930846
 H        -0.213469         0.111597         1.237983
 H        -0.164521         1.300608         0.000273
 H        -0.670181        -0.547243        -0.264695
 H         1.217422        -2.190102         0.596741
 H         1.851881        -2.164872        -0.990805
 H         4.879957        -2.035156         0.796044
 H         4.692062         0.391031         0.084582
 H         3.482586         1.558459        -1.674589
 H         3.688645        -0.252458        -2.335150
 H         2.679996         0.882311         1.815413
