19
Iteration:  4211charge 0 multiplicity 1
 C         0.050991         0.306716         0.286026
 C         1.419775        -0.169829        -0.065612
 C         1.983969        -1.640882        -0.039859
 C         3.240674        -1.152151         0.673422
 O         4.129019        -1.847272         1.564105
 C         3.769900         0.014251        -0.184233
 C         3.209384         0.432135        -1.570058
 O         1.751869         0.367654        -1.437349
 C         2.592897         0.280924         0.834637
 H        -0.405614        -0.347097         1.007054
 H        -0.105347         1.442351         0.367820
 H        -0.722402         0.165514        -0.574117
 H         1.336628        -2.360608         0.441600
 H         2.123286        -2.007892        -0.998676
 H         4.253788        -2.764905         1.236188
 H         4.722491         0.389477         0.031973
 H         3.439391         1.431265        -1.816925
 H         3.537247        -0.282368        -2.326808
 H         2.657600         0.903714         1.765409
