19
Iteration:  1494charge 0 multiplicity 1
 C        -0.048733         0.210937         0.080944
 C         1.451786        -0.106830        -0.060036
 C         1.982694        -1.617420         0.085151
 C         3.251410        -1.075470         0.693450
 O         4.179953        -1.831312         1.331383
 C         3.751143         0.126565        -0.149163
 C         3.172026         0.193729        -1.565813
 O         1.825024         0.410357        -1.283576
 C         2.599041         0.344289         0.904580
 H        -0.562057         0.072875         1.044392
 H        -0.260230         1.291809        -0.017811
 H        -0.577329        -0.517587        -0.554684
 H         1.397190        -2.199437         0.871774
 H         2.071613        -2.253600        -0.842615
 H         3.722504        -2.532435         1.835879
 H         4.812564         0.327931         0.132502
 H         3.585546         0.960110        -2.167865
 H         3.248795        -0.758918        -2.150830
 H         2.718377         1.192281         1.583093
