19
Iteration:  2485
 C         0.049711         0.283187         0.280091
 C         1.454304        -0.181253        -0.106825
 C         1.971887        -1.676307         0.024006
 C         3.297374        -1.168561         0.580168
 O         4.128521        -1.786145         1.540849
 C         3.799590         0.025468        -0.215776
 C         3.156620         0.477997        -1.494449
 O         1.727076         0.311889        -1.470178
 C         2.603979         0.216436         0.790201
 H        -0.267518        -0.076711         1.257776
 H        -0.029708         1.361333         0.392519
 H        -0.690211        -0.037229        -0.498040
 H         1.406947        -2.105020         0.952899
 H         2.176805        -2.412006        -0.766671
 H         3.553370        -2.432733         2.018959
 H         4.655213         0.566788         0.034669
 H         3.414843         1.538163        -1.614665
 H         3.564413         0.233759        -2.477014
 H         2.669410         0.970447         1.639763
