19
Iteration:  2597
 C        -0.033940         0.342317         0.235381
 C         1.447394        -0.187761        -0.076393
 C         1.935066        -1.696179         0.035614
 C         3.293988        -1.206879         0.589185
 O         4.159107        -1.779935         1.512472
 C         3.751405         0.078971        -0.219523
 C         3.154044         0.493233        -1.521160
 O         1.798876         0.258443        -1.445549
 C         2.655673         0.284252         0.832670
 H        -0.295961         0.093481         1.250558
 H        -0.177722         1.371525         0.043005
 H        -0.683136        -0.406208        -0.252289
 H         1.380146        -2.132680         0.967944
 H         1.918313        -2.346531        -0.863597
 H         3.805400        -2.552473         1.981665
 H         4.752736         0.454283         0.063846
 H         3.350284         1.615574        -1.715835
 H         3.630828        -0.080519        -2.411127
 H         2.694573         0.779275         1.716786
