19
Iteration:  4416
 C         0.130933         0.202301         0.316680
 C         1.506761        -0.154188        -0.106939
 C         1.863776        -1.657537         0.105592
 C         3.176453        -1.064181         0.485775
 O         3.913147        -1.915831         1.459614
 C         3.800017         0.144751        -0.168894
 C         3.234292         0.501166        -1.509157
 O         1.838646         0.249192        -1.488668
 C         2.661481         0.281524         0.872670
 H        -0.038927         0.143454         1.437467
 H        -0.229093         1.212047         0.153102
 H        -0.636885        -0.426524        -0.170236
 H         1.334741        -2.260996         0.961660
 H         1.676474        -2.398720        -0.755632
 H         4.804131        -1.558643         1.412174
 H         4.798094         0.276327         0.012350
 H         3.431920         1.663579        -1.701562
 H         3.743164        -0.147208        -2.291485
 H         2.738043         0.858046         1.817229
