19
Iteration:  3562
 C         0.021241         0.262796         0.109877
 C         1.462521        -0.199427        -0.061359
 C         1.927999        -1.672420         0.041733
 C         3.220586        -1.126046         0.636068
 O         4.140257        -1.852371         1.329857
 C         3.694462         0.137586        -0.076940
 C         3.218915         0.356719        -1.499661
 O         1.758918         0.405289        -1.329895
 C         2.628224         0.215018         0.964498
 H        -0.355134        -0.035566         1.164435
 H        -0.146424         1.360390        -0.078535
 H        -0.552358        -0.068159        -0.777085
 H         1.295943        -2.146756         0.852269
 H         2.013238        -2.116638        -0.886808
 H         5.012677        -1.848884         0.896321
 H         4.700914         0.437166         0.259820
 H         3.578879         1.245648        -2.030116
 H         3.499616        -0.568038        -2.166606
 H         2.615296         0.948957         1.768867
