19
Iteration:   241charge 0 multiplicity 1
 C         0.007352         0.076952         0.156522
 C         1.489471        -0.140064        -0.029394
 C         1.934781        -1.619595         0.091406
 C         3.240326        -1.056922         0.622099
 O         4.020404        -1.972424         1.387261
 C         3.744699         0.210009        -0.120544
 C         3.263701         0.272239        -1.564886
 O         1.828263         0.447372        -1.398576
 C         2.553695         0.355728         0.899392
 H        -0.388364        -0.277560         1.084472
 H        -0.259614         1.127387         0.142764
 H        -0.562161        -0.314403        -0.657182
 H         1.422963        -2.089340         0.898041
 H         2.028223        -2.095218        -0.915006
 H         4.925283        -1.576768         1.416681
 H         4.618391         0.741772         0.278852
 H         3.633369         1.128016        -2.092466
 H         3.603736        -0.691279        -2.030078
 H         2.726686         1.014106         1.765924
