19
Iteration:  1725
 C         0.078087         0.424906         0.189957
 C         1.398460        -0.199476        -0.109673
 C         1.860662        -1.778119         0.078112
 C         3.189538        -1.178214         0.590482
 O         4.274939        -1.714156         1.455657
 C         3.637915        -0.009971        -0.178913
 C         3.208645         0.569713        -1.460078
 O         1.792948         0.172960        -1.511020
 C         2.675175         0.180884         0.862752
 H        -0.308901         0.376787         1.239398
 H         0.073414         1.474298         0.134586
 H        -0.676586        -0.020744        -0.378007
 H         1.272914        -2.299019         0.896443
 H         1.934598        -2.361866        -0.857551
 H         3.908757        -1.720975         2.373964
 H         4.727045         0.182662         0.071419
 H         3.311341         1.710466        -1.384349
 H         3.623244         0.219065        -2.418528
 H         2.613871         0.718373         1.890418
