19
Iteration:  4203
 C        -0.012475         0.260269         0.246492
 C         1.483187        -0.101844        -0.089711
 C         1.968416        -1.622511        -0.038827
 C         3.300062        -1.111639         0.637253
 O         4.114878        -1.898178         1.577964
 C         3.704820         0.075222        -0.166235
 C         3.178097         0.343947        -1.553076
 O         1.726964         0.399002        -1.409104
 C         2.638499         0.265900         0.848694
 H        -0.387235        -0.329597         1.065313
 H        -0.038096         1.293620         0.571719
 H        -0.412351         0.016337        -0.720259
 H         1.410654        -2.321625         0.565619
 H         2.071488        -2.103002        -1.077791
 H         4.169467        -2.828274         1.282152
 H         4.678717         0.456721         0.012816
 H         3.649267         1.360153        -1.883518
 H         3.601652        -0.245327        -2.347593
 H         2.796519         1.125942         1.589343
