19
Iteration:   772charge 0 multiplicity 1
 C         0.102482         0.188482         0.256734
 C         1.461434        -0.224864        -0.115570
 C         1.955968        -1.667657        -0.010740
 C         3.288031        -1.122015         0.623800
 O         4.114282        -1.834606         1.518108
 C         3.702673         0.121452        -0.156986
 C         3.172165         0.484119        -1.569225
 O         1.751948         0.358348        -1.442942
 C         2.603429         0.256307         0.860350
 H         0.107326         0.071286         1.361838
 H         0.116990         1.254828        -0.114327
 H        -0.754573        -0.398445        -0.307682
 H         1.322764        -2.291591         0.561078
 H         2.031061        -2.164758        -0.927852
 H         3.538198        -1.919674         2.319980
 H         4.752753         0.309406        -0.007132
 H         3.601748         1.475721        -1.847327
 H         3.581579        -0.193945        -2.338671
 H         2.550335         0.794409         1.800194
