19
Iteration:  3326
 C         0.019367         0.287845         0.196686
 C         1.420753        -0.174792        -0.087028
 C         1.891921        -1.643007         0.006059
 C         3.247542        -1.089034         0.652067
 O         4.155834        -1.816620         1.338347
 C         3.695469         0.141890        -0.035396
 C         3.271811         0.392818        -1.398023
 O         1.776283         0.266290        -1.453818
 C         2.583184         0.198183         0.922449
 H        -0.126402         0.256445         1.320351
 H        -0.156354         1.271234        -0.241040
 H        -0.782297        -0.342236        -0.362154
 H         1.366608        -2.244983         0.723040
 H         2.015294        -2.175373        -1.024311
 H         4.659074        -2.320358         0.684250
 H         4.729761         0.675544         0.177047
 H         3.529254         1.442541        -1.848885
 H         3.875370        -0.154334        -2.149196
 H         2.552532         0.774122         1.856552
