19
Iteration:  1327
 C        -0.103791         0.103594         0.042160
 C         1.424835        -0.057843        -0.028273
 C         2.045333        -1.523255         0.150829
 C         3.250928        -1.025700         0.751705
 O         4.180874        -1.895072         1.262294
 C         3.705860         0.082764        -0.158364
 C         3.187192         0.183741        -1.512047
 O         1.831004         0.464566        -1.336282
 C         2.646790         0.355725         0.897116
 H        -0.596311         0.147338         1.051224
 H        -0.347488         1.129939        -0.352963
 H        -0.692972        -0.669543        -0.569738
 H         1.354918        -2.052758         0.866495
 H         2.141633        -2.186196        -0.761768
 H         3.726985        -2.585793         1.801518
 H         4.688496         0.481817         0.059219
 H         3.792652         0.931327        -1.991939
 H         3.207619        -0.804205        -2.103778
 H         2.798336         0.827637         1.833628
