19
Iteration:  2196charge 0 multiplicity 1
 C         0.173242         0.119116         0.330645
 C         1.530203        -0.203486        -0.175152
 C         1.952757        -1.657553        -0.057380
 C         3.143763        -1.124862         0.658585
 O         3.977250        -1.783190         1.578191
 C         3.749818         0.117425        -0.182161
 C         3.158445         0.437476        -1.550402
 O         1.751883         0.449679        -1.426401
 C         2.677329         0.234843         0.858557
 H         0.022613        -0.428614         1.249413
 H         0.187277         1.187914         0.512133
 H        -0.640960        -0.048390        -0.392813
 H         1.339100        -2.298663         0.559073
 H         2.187789        -2.207168        -1.026943
 H         4.455186        -2.504887         1.130931
 H         4.739264         0.391279        -0.142484
 H         3.502350         1.363152        -1.921111
 H         3.535675        -0.404950        -2.222680
 H         2.511930         0.966608         1.605862
