19
Iteration:   932charge 0 multiplicity 1
 C         0.123851         0.198502         0.386347
 C         1.484648        -0.218370        -0.143306
 C         2.026299        -1.653630        -0.054233
 C         3.196444        -1.071568         0.664103
 O         4.036934        -1.852507         1.495692
 C         3.745851         0.152240        -0.146496
 C         3.220480         0.522470        -1.537191
 O         1.765832         0.232209        -1.476596
 C         2.602395         0.297296         0.796491
 H        -0.019469         0.122493         1.432867
 H         0.042343         1.212427         0.053309
 H        -0.715147        -0.198116        -0.097469
 H         1.338674        -2.155064         0.677439
 H         2.300992        -2.368271        -0.884310
 H         3.452019        -2.501486         1.954813
 H         4.848751         0.328549         0.030834
 H         3.288423         1.539580        -1.892827
 H         3.558043        -0.091091        -2.419679
 H         2.405071         1.057262         1.613402
