19
Iteration:  1452charge 0 multiplicity 1
 C         0.088127         0.117271         0.286624
 C         1.459680        -0.094724        -0.136423
 C         1.955256        -1.597179        -0.027418
 C         3.207541        -1.100015         0.650496
 O         4.062690        -1.838566         1.473746
 C         3.756376         0.027889        -0.205663
 C         3.248694         0.266970        -1.597094
 O         1.823943         0.455815        -1.381241
 C         2.591515         0.304136         0.862049
 H        -0.015724        -0.326774         1.362791
 H        -0.331474         1.170743         0.416874
 H        -0.676156        -0.548480        -0.152234
 H         1.328710        -2.134503         0.664176
 H         2.000423        -2.111041        -0.966701
 H         3.705717        -1.567222         2.357870
 H         4.700614         0.500126         0.159139
 H         3.552677         1.186774        -2.097458
 H         3.508159        -0.615960        -2.298322
 H         2.501056         1.227632         1.443547
