19
Iteration:  2315charge 0 multiplicity 1
 C         0.201470         0.173297         0.419734
 C         1.510367        -0.185292        -0.111482
 C         1.945939        -1.710588        -0.093830
 C         3.208706        -1.112128         0.586690
 O         3.858834        -1.768838         1.551558
 C         3.755006         0.133206        -0.172392
 C         3.214239         0.423548        -1.624680
 O         1.779913         0.306450        -1.398786
 C         2.660899         0.270409         0.821234
 H         0.025954        -0.221135         1.436361
 H         0.322743         1.275229         0.479168
 H        -0.732867        -0.139919        -0.181311
 H         1.512659        -2.214453         0.726786
 H         1.997524        -2.190386        -1.148432
 H         4.771637        -1.989721         1.291600
 H         4.692507         0.545816         0.099976
 H         3.358658         1.454250        -1.868253
 H         3.406637        -0.306856        -2.375029
 H         2.595992         1.021057         1.559137
