19
Iteration:  1926charge 0 multiplicity 1
 C        -0.054230         0.230610         0.107900
 C         1.488142        -0.115533        -0.041043
 C         1.890933        -1.651371         0.121360
 C         3.179790        -1.067998         0.625754
 O         4.191255        -1.761653         1.248723
 C         3.715232         0.106663        -0.124046
 C         3.247260         0.210438        -1.528444
 O         1.811234         0.375275        -1.300114
 C         2.682543         0.293761         0.934307
 H        -0.444419        -0.020964         1.061950
 H        -0.206839         1.290895        -0.034381
 H        -0.466026        -0.410912        -0.683024
 H         1.391476        -2.153501         0.998469
 H         2.041315        -2.333773        -0.762188
 H         3.682795        -2.476778         1.675930
 H         4.754287         0.308853         0.261431
 H         3.554797         1.161634        -1.962313
 H         3.405864        -0.679674        -2.200808
 H         2.598758         1.173355         1.682214
