19
Iteration:  4832charge 0 multiplicity 1
 C         0.117074         0.404017         0.236314
 C         1.467228        -0.185516        -0.063415
 C         1.923050        -1.685203         0.120162
 C         3.207135        -1.142949         0.656484
 O         4.126681        -1.918463         1.386340
 C         3.754669         0.015641        -0.131375
 C         3.205156         0.442543        -1.540567
 O         1.750025         0.250419        -1.503470
 C         2.634710         0.342170         0.819904
 H        -0.219254         0.109090         1.194954
 H         0.076902         1.476227         0.352997
 H        -0.743911         0.057415        -0.435064
 H         1.377334        -2.020774         1.010033
 H         2.141563        -2.478035        -0.797651
 H         3.676189        -2.130712         2.221528
 H         4.683303         0.504211         0.158346
 H         3.321949         1.533995        -1.759342
 H         3.625167        -0.117588        -2.364816
 H         2.470492         1.202137         1.479332
