19
Iteration:   396
 C        -0.096149         0.053522         0.085186
 C         1.450899        -0.166302        -0.070681
 C         1.960454        -1.668288         0.064220
 C         3.266706        -1.065832         0.652581
 O         4.088435        -1.783463         1.546959
 C         3.814931         0.122353        -0.184089
 C         3.208020         0.336145        -1.560099
 O         1.799153         0.533108        -1.273887
 C         2.667533         0.228158         0.782513
 H        -0.594991        -0.384331         0.995936
 H        -0.193250         1.185368         0.065845
 H        -0.540762        -0.306072        -0.803393
 H         1.473073        -2.297329         0.811482
 H         2.080137        -2.279406        -0.829040
 H         4.067185        -2.719514         1.351650
 H         4.828942         0.622146        -0.008605
 H         3.504108         1.283761        -1.966066
 H         3.275350        -0.546295        -2.312839
 H         2.773681         1.129422         1.468518
