19
Iteration:   421charge 0 multiplicity 1
 C        -0.002878         0.046062         0.017678
 C         1.490547        -0.056235        -0.065804
 C         1.975135        -1.559151         0.034270
 C         3.225620        -1.098216         0.712818
 O         4.176229        -1.799546         1.463975
 C         3.696134         0.113278        -0.107173
 C         3.152772         0.216046        -1.539863
 O         1.792634         0.531613        -1.327652
 C         2.620631         0.286535         0.929711
 H        -0.195437        -0.075241         1.064661
 H        -0.304020         0.969259        -0.343399
 H        -0.450666        -0.725462        -0.572317
 H         1.043306        -2.216610         0.525480
 H         2.181093        -2.086957        -0.967355
 H         4.413862        -2.632676         1.034741
 H         4.703746         0.480653        -0.177811
 H         3.541040         1.067896        -2.095308
 H         3.194633        -0.852278        -1.946148
 H         2.619401         0.744521         1.895314
