19
Iteration:  4051
 C        -0.001513         0.194042         0.176469
 C         1.460768        -0.156598        -0.034150
 C         1.877121        -1.646689         0.148845
 C         3.170732        -1.083609         0.616328
 O         4.135744        -1.881581         1.369968
 C         3.792650         0.010431        -0.143557
 C         3.201690         0.480218        -1.482592
 O         1.821906         0.307629        -1.384785
 C         2.650467         0.389408         0.817182
 H        -0.502144        -0.427193         0.979662
 H        -0.020788         1.259154         0.278501
 H        -0.508611         0.139394        -0.771679
 H         1.324584        -1.985210         0.978177
 H         1.868608        -2.218712        -0.871336
 H         4.432249        -2.642061         0.819891
 H         4.765943         0.190484         0.191708
 H         3.517345         1.482816        -1.523262
 H         3.549703        -0.185171        -2.318338
 H         2.570088         1.070622         1.660789
