19
Iteration:  3981
 C         0.120423         0.105757         0.404871
 C         1.486885        -0.121102        -0.114505
 C         1.992922        -1.686751        -0.148708
 C         3.118028        -1.092547         0.659592
 O         3.952615        -1.797422         1.547250
 C         3.761961        -0.001772        -0.164733
 C         3.206651         0.385086        -1.595735
 O         1.792540         0.526922        -1.372913
 C         2.642243         0.245795         0.814841
 H         0.135127        -0.043813         1.411390
 H        -0.135792         1.125970         0.109882
 H        -0.618137        -0.481238        -0.114962
 H         1.335818        -2.323620         0.515966
 H         2.429915        -2.046065        -1.150820
 H         4.613609        -2.290325         1.013960
 H         4.798956         0.309375         0.009810
 H         3.557754         1.419559        -1.966991
 H         3.436675        -0.490655        -2.237241
 H         2.704578         0.891361         1.725050
