19
Iteration:  4831
 C         0.115046         0.407607         0.231190
 C         1.459283        -0.182069        -0.061005
 C         1.928785        -1.679202         0.124568
 C         3.202503        -1.150286         0.665031
 O         4.135195        -1.920523         1.379002
 C         3.751602         0.019922        -0.139561
 C         3.212247         0.434831        -1.548067
 O         1.751357         0.251767        -1.497044
 C         2.628172         0.341615         0.825390
 H        -0.261664         0.083695         1.175542
 H         0.081765         1.495358         0.328002
 H        -0.727625         0.062010        -0.428624
 H         1.366091        -2.016173         1.016893
 H         2.152162        -2.470859        -0.783754
 H         3.690781        -2.118444         2.214064
 H         4.650545         0.496151         0.163878
 H         3.349277         1.526695        -1.766345
 H         3.631657        -0.104453        -2.352519
 H         2.456129         1.172871         1.507173
