19
Iteration:  2106charge 0 multiplicity 1
 C        -0.094986         0.117064         0.176353
 C         1.433622        -0.078888        -0.084094
 C         1.947096        -1.586132         0.115919
 C         3.242551        -1.018217         0.692537
 O         4.130894        -1.950717         1.381940
 C         3.746065         0.066577        -0.142164
 C         3.284241         0.276767        -1.580365
 O         1.805867         0.495232        -1.359323
 C         2.636757         0.382429         0.888886
 H        -0.353550        -0.321815         1.142822
 H        -0.303803         1.150474        -0.057789
 H        -0.621091        -0.520569        -0.640690
 H         1.515134        -2.018677         1.054387
 H         2.010335        -2.430297        -0.723439
 H         4.368082        -2.663208         0.747581
 H         4.773683         0.446093         0.181461
 H         3.547316         1.127451        -2.136400
 H         3.312143        -0.716039        -2.151386
 H         2.562787         1.079143         1.788154
