19
Iteration:  3958charge 0 multiplicity 1
 C         0.126649         0.152740         0.483761
 C         1.467970        -0.127203        -0.160756
 C         1.867201        -1.675823        -0.093622
 C         3.271170        -1.188917         0.534439
 O         3.909862        -1.861862         1.623551
 C         3.799475         0.118894        -0.153428
 C         3.244712         0.526739        -1.531960
 O         1.789427         0.393377        -1.513647
 C         2.651870         0.185035         0.735589
 H         0.293960        -0.177315         1.452460
 H        -0.184960         1.195095         0.452682
 H        -0.697886        -0.381932         0.056644
 H         1.315497        -2.046773         0.828025
 H         1.916665        -2.232077        -1.071943
 H         4.833126        -2.120275         1.516766
 H         4.693509         0.594033         0.072433
 H         3.417664         1.670847        -1.679105
 H         3.553945        -0.111450        -2.353712
 H         2.654204         0.952283         1.560274
