19
Iteration:  1683charge 0 multiplicity 1
 C         0.116597         0.291535         0.291667
 C         1.493195        -0.167043        -0.063017
 C         1.961788        -1.692633         0.062366
 C         3.189994        -1.110473         0.580302
 O         4.117938        -1.858431         1.424778
 C         3.663564         0.175723        -0.134839
 C         3.205174         0.440155        -1.582415
 O         1.791918         0.193187        -1.479944
 C         2.570855         0.341642         0.855864
 H        -0.134563        -0.000505         1.328092
 H         0.259609         1.367418         0.070164
 H        -0.555844        -0.156389        -0.424865
 H         1.407246        -2.215849         0.943708
 H         2.006033        -2.410214        -0.806023
 H         3.598741        -2.211433         2.186113
 H         4.727876         0.529888         0.172464
 H         3.373496         1.443111        -1.919720
 H         3.776828        -0.275974        -2.267683
 H         2.709340         0.970450         1.838080
