19
Iteration:  4436charge 0 multiplicity 1
 C        -0.023065         0.247454         0.200049
 C         1.451517        -0.105513        -0.100853
 C         1.934246        -1.589352         0.074427
 C         3.203967        -1.130954         0.711801
 O         4.123148        -1.956146         1.382464
 C         3.748553         0.001004        -0.107288
 C         3.249311         0.402124        -1.559210
 O         1.777705         0.335663        -1.408587
 C         2.636615         0.306787         0.862194
 H        -0.359864         0.448339         1.307083
 H        -0.277499         1.310306        -0.087995
 H        -0.750656        -0.419080        -0.305519
 H         1.187545        -2.064227         0.732616
 H         1.921498        -2.152117        -0.890855
 H         5.013471        -1.601058         1.204993
 H         4.695760         0.379328         0.216267
 H         3.569397         1.370872        -1.785764
 H         3.666058        -0.240877        -2.287165
 H         2.646204         1.054404         1.707315
