19
Iteration:  3870charge 0 multiplicity 1
 C         0.013710         0.174838         0.142005
 C         1.441712        -0.128533        -0.042075
 C         1.871829        -1.650294         0.061283
 C         3.209479        -1.139453         0.684082
 O         4.146555        -1.847304         1.304729
 C         3.747630         0.157955        -0.092703
 C         3.271163         0.251647        -1.553570
 O         1.812525         0.537027        -1.287318
 C         2.588890         0.256175         0.871187
 H        -0.325398        -0.146975         1.057064
 H        -0.208842         1.214468         0.162191
 H        -0.408830        -0.256877        -0.728549
 H         1.250282        -2.182229         0.900418
 H         1.970298        -2.351235        -0.860737
 H         4.513375        -2.426765         0.616752
 H         4.648945         0.582752         0.356685
 H         3.663831         1.139407        -2.080733
 H         3.352408        -0.752574        -1.959459
 H         2.607622         0.834914         1.786327
