19
Iteration:  2338
 C         0.135164         0.125132         0.489890
 C         1.452095        -0.182592        -0.119038
 C         2.025245        -1.656690        -0.076261
 C         3.245759        -1.093932         0.659116
 O         3.889955        -1.826445         1.664774
 C         3.786979         0.090468        -0.246431
 C         3.209858         0.411526        -1.607208
 O         1.739888         0.448737        -1.512641
 C         2.659720         0.306116         0.705736
 H        -0.079834        -0.530175         1.378716
 H         0.053541         1.219154         0.792852
 H        -0.649961        -0.221023        -0.185093
 H         1.575815        -2.242868         0.710037
 H         2.330739        -2.209504        -1.052218
 H         4.272386        -2.621375         1.252692
 H         4.904905         0.355046        -0.059458
 H         3.453509         1.404737        -1.838002
 H         3.456111        -0.325476        -2.356769
 H         2.558762         0.970936         1.619378
