19
Iteration:  2856charge 0 multiplicity 1
 C         0.023898         0.074946         0.283840
 C         1.451715        -0.115085        -0.127095
 C         1.950648        -1.572528        -0.053953
 C         3.268205        -1.060717         0.677238
 O         4.149157        -1.919348         1.379497
 C         3.773287         0.103413        -0.068355
 C         3.218331         0.222553        -1.485024
 O         1.752918         0.498192        -1.370387
 C         2.580794         0.420614         0.786891
 H        -0.203758        -0.249563         1.313088
 H        -0.164484         1.127758         0.235800
 H        -0.764500        -0.537724        -0.352789
 H         1.279439        -2.085385         0.669510
 H         2.140941        -2.073756        -1.103163
 H         3.681942        -2.520344         1.997842
 H         4.778715         0.657414         0.111969
 H         3.740346         0.873160        -2.289099
 H         3.448431        -0.723837        -2.062113
 H         2.572156         1.149507         1.535928
