19
Iteration:  1344
 C        -0.042687         0.186067         0.042214
 C         1.419959        -0.084620        -0.085722
 C         1.862269        -1.569031         0.109960
 C         3.274830        -1.079854         0.675952
 O         4.281050        -1.881822         1.228187
 C         3.766646         0.148425        -0.008270
 C         3.230780         0.133097        -1.494603
 O         1.779204         0.415364        -1.355984
 C         2.586602         0.388245         0.988887
 H        -0.232839        -0.057599         1.074125
 H        -0.428901         1.140361        -0.246270
 H        -0.541042        -0.429732        -0.666563
 H         1.318265        -2.066103         0.911313
 H         1.819443        -2.244132        -0.751595
 H         3.833096        -2.583768         1.753211
 H         4.818478         0.485193         0.267200
 H         3.440081         0.933715        -2.244689
 H         3.434118        -0.818101        -1.935433
 H         2.545353         1.391041         1.508360
