19
Iteration:  3786charge 0 multiplicity 1
 C         0.162172         0.188238         0.438610
 C         1.495475        -0.162002        -0.098682
 C         1.963525        -1.701963        -0.163946
 C         3.188166        -1.134310         0.615482
 O         3.932859        -1.859645         1.555398
 C         3.795767         0.067124        -0.164522
 C         3.232029         0.480760        -1.538696
 O         1.760024         0.469575        -1.452547
 C         2.612422         0.166404         0.806750
 H        -0.031981        -0.405354         1.352946
 H         0.005818         1.359684         0.534227
 H        -0.624915        -0.322120        -0.248870
 H         1.425776        -2.312779         0.476421
 H         2.025236        -2.269311        -1.075952
 H         4.862549        -1.568051         1.531942
 H         4.713526         0.544381         0.051117
 H         3.478789         1.457831        -1.900331
 H         3.426412        -0.120437        -2.416575
 H         2.371806         0.773139         1.676704
