19
Iteration:  1403charge 0 multiplicity 1
 C         0.179747         0.305616         0.274333
 C         1.418904        -0.185670        -0.073738
 C         1.893902        -1.691999         0.006620
 C         3.327076        -1.160918         0.623287
 O         4.074503        -1.804982         1.589088
 C         3.733279         0.058566        -0.216196
 C         3.140106         0.505592        -1.555306
 O         1.795945         0.241661        -1.484088
 C         2.630783         0.284120         0.740982
 H        -0.320335        -0.187402         1.100540
 H         0.232021         1.333311         0.500970
 H        -0.595334        -0.083491        -0.389137
 H         1.400037        -2.384731         0.784723
 H         1.922049        -2.206194        -1.035790
 H         3.499318        -2.079002         2.306816
 H         4.623135         0.487731         0.122079
 H         3.292736         1.586981        -1.551130
 H         3.585839         0.159804        -2.464535
 H         2.693566         0.745088         1.705132
