19
Iteration:  1432
 C         0.064752         0.168837         0.371823
 C         1.474260        -0.188467        -0.114978
 C         1.965487        -1.716162        -0.032804
 C         3.231430        -1.123128         0.622418
 O         3.966098        -1.776587         1.576010
 C         3.810759         0.034274        -0.201524
 C         3.190064         0.475678        -1.566235
 O         1.747671         0.384319        -1.467498
 C         2.740473         0.300950         0.715601
 H        -0.326311        -0.262293         1.417309
 H         0.050152         1.296011         0.267486
 H        -0.626037        -0.233222        -0.373248
 H         1.395520        -2.229474         0.687560
 H         2.126239        -2.343554        -0.884575
 H         3.575389        -1.841580         2.471568
 H         4.893329         0.147118         0.026551
 H         3.535102         1.550491        -1.863328
 H         3.554342        -0.245718        -2.355073
 H         2.814067         0.765340         1.697390
