19
Iteration:  1525
 C         0.033376         0.319838         0.172772
 C         1.471892        -0.094845        -0.111041
 C         1.888994        -1.693922         0.195217
 C         3.234007        -1.151251         0.603401
 O         4.210290        -1.828606         1.458674
 C         3.741323         0.117344        -0.160873
 C         3.172636         0.487643        -1.542583
 O         1.799487         0.206110        -1.459735
 C         2.632856         0.276565         0.863900
 H        -0.272271        -0.149560         1.108636
 H        -0.344903         1.355953        -0.018821
 H        -0.728795        -0.155903        -0.559748
 H         1.255990        -2.063698         1.100051
 H         1.768391        -2.399553        -0.706624
 H         3.836927        -2.663957         1.783871
 H         4.863699         0.138012        -0.046929
 H         3.375889         1.582108        -1.786957
 H         3.489214        -0.140016        -2.373312
 H         2.649337         1.067503         1.631859
