19
Iteration:  4023
 C        -0.044280         0.154660         0.121334
 C         1.471236        -0.081894        -0.027471
 C         1.934850        -1.594008         0.085038
 C         3.286655        -1.098551         0.616025
 O         4.129934        -1.898261         1.461769
 C         3.775197         0.150717        -0.199895
 C         3.141547         0.289479        -1.620358
 O         1.814360         0.532231        -1.334090
 C         2.672755         0.174046         0.963117
 H        -0.480927        -0.538750         0.912001
 H        -0.281482         1.246596         0.046499
 H        -0.613702        -0.203045        -0.779225
 H         1.293155        -1.980497         0.976263
 H         1.804079        -2.223780        -0.773753
 H         4.167473        -2.791609         1.068210
 H         4.623949         0.742008         0.175715
 H         3.672217         1.202243        -2.197749
 H         3.264529        -0.603813        -2.241752
 H         2.734408         0.831230         1.891339
