19
Iteration:  4301
 C         0.018554         0.146213         0.159787
 C         1.527639        -0.093861        -0.008745
 C         1.936131        -1.505144         0.050503
 C         3.240419        -1.063558         0.690882
 O         4.043538        -2.056614         1.327678
 C         3.762182         0.071977        -0.145145
 C         3.217346         0.251699        -1.549526
 O         1.745606         0.448986        -1.320755
 C         2.611316         0.403403         0.899443
 H        -0.326133        -0.198459         1.194814
 H        -0.100025         1.181051        -0.366341
 H        -0.338616        -0.605330        -0.632961
 H         1.276100        -1.970978         0.695590
 H         1.960989        -2.173545        -0.786101
 H         4.874339        -1.617952         1.562124
 H         4.792690         0.451324         0.175724
 H         3.648314         1.131827        -1.955718
 H         3.355167        -0.565421        -2.265694
 H         2.602429         1.305814         1.473405
