19
Iteration:  4620charge 0 multiplicity 1
 C        -0.095844         0.139481         0.090836
 C         1.471551        -0.046195        -0.056347
 C         1.904260        -1.571595         0.134721
 C         3.236693        -1.055202         0.700153
 O         4.124872        -2.033550         1.301004
 C         3.712986         0.120016        -0.100153
 C         3.247807         0.212857        -1.559406
 O         1.825407         0.510407        -1.347734
 C         2.631467         0.364675         0.936661
 H        -0.350882        -0.334142         1.068742
 H        -0.319767         1.201268         0.075587
 H        -0.434535        -0.416110        -0.680865
 H         1.363807        -1.862124         1.024697
 H         1.843922        -2.238055        -0.796010
 H         5.060084        -1.788768         1.290604
 H         4.736261         0.308803         0.093199
 H         3.845301         0.901989        -2.264497
 H         3.259776        -0.784761        -2.095357
 H         2.622359         1.165580         1.643310
