19
Iteration:  1305
 C         0.031368         0.098833         0.128387
 C         1.486977        -0.118566        -0.070866
 C         1.926953        -1.618016         0.031123
 C         3.266739        -1.102227         0.623819
 O         4.117041        -1.879653         1.472504
 C         3.804515         0.090963        -0.151197
 C         3.149999         0.340082        -1.593362
 O         1.771694         0.474743        -1.333971
 C         2.652114         0.348130         0.858375
 H        -0.276121         0.066771         1.221123
 H        -0.398734         1.067447        -0.247514
 H        -0.523208        -0.858488        -0.203407
 H         1.418669        -2.212023         0.831534
 H         1.821872        -2.146425        -0.953572
 H         3.555082        -2.276514         2.147835
 H         4.798113         0.394978         0.243150
 H         3.651035         1.157984        -2.077352
 H         3.273344        -0.640245        -2.217323
 H         2.783855         1.211003         1.489569
