19
Iteration:   316
 C         0.063922         0.229128         0.243561
 C         1.453754        -0.212986        -0.170409
 C         1.958490        -1.649995        -0.041211
 C         3.275276        -1.094292         0.630322
 O         4.019290        -1.841982         1.552504
 C         3.730197         0.113071        -0.079148
 C         3.207577         0.431181        -1.486873
 O         1.730758         0.352265        -1.499485
 C         2.649710         0.173896         0.834142
 H        -0.063367         0.069040         1.342262
 H        -0.072748         1.341437         0.031319
 H        -0.834725        -0.331623        -0.371405
 H         1.502205        -2.012741         0.787392
 H         2.083391        -2.192291        -0.920592
 H         4.956408        -1.656581         1.515384
 H         4.577628         0.662399         0.263891
 H         3.643704         1.415693        -1.788285
 H         3.593877        -0.308010        -2.266416
 H         2.677535         0.709557         1.757367
