19
Iteration:  2549charge 0 multiplicity 1
 C        -0.108337         0.060114         0.259053
 C         1.394698        -0.055216        -0.122626
 C         1.960570        -1.605042         0.043187
 C         3.251004        -1.058292         0.634154
 O         4.160223        -1.914990         1.357751
 C         3.784790         0.176126        -0.181211
 C         3.271405         0.140906        -1.553855
 O         1.832202         0.538587        -1.367967
 C         2.608555         0.370911         0.862933
 H        -0.289159        -0.361531         1.297674
 H        -0.367919         1.167662         0.310683
 H        -0.743518        -0.599308        -0.371772
 H         1.419846        -2.183181         0.822204
 H         2.130381        -2.185302        -0.873663
 H         3.778498        -2.011805         2.257320
 H         4.743601         0.372892         0.247363
 H         3.779916         0.911710        -2.148618
 H         3.301789        -0.892586        -2.022750
 H         2.563235         1.208916         1.702176
