19
Iteration:  2529
 C         0.035074         0.074580         0.292423
 C         1.449349        -0.043270        -0.110357
 C         1.978634        -1.551140        -0.081990
 C         3.266260        -1.087660         0.708114
 O         4.146133        -1.817172         1.383513
 C         3.778663         0.099311        -0.089852
 C         3.165413         0.164949        -1.550069
 O         1.770071         0.495290        -1.422953
 C         2.602560         0.274379         0.853313
 H        -0.310875        -0.480628         1.148007
 H        -0.216005         1.117684         0.503329
 H        -0.610189        -0.291937        -0.571231
 H         1.319872        -1.963048         0.794767
 H         1.862079        -2.115081        -1.017359
 H         3.627954        -2.108196         2.172263
 H         4.702056         0.674588         0.171105
 H         3.759219         0.777734        -2.272201
 H         3.389813        -0.848623        -2.017387
 H         2.652930         0.971581         1.820531
