19
Iteration:  2359charge 0 multiplicity 1
 C         0.062695         0.095398         0.319677
 C         1.501476        -0.080134        -0.109248
 C         1.946510        -1.578081        -0.067382
 C         3.269883        -1.146706         0.616941
 O         4.041698        -1.768767         1.638461
 C         3.799301         0.025803        -0.254048
 C         3.167756         0.323754        -1.653528
 O         1.753489         0.482570        -1.408030
 C         2.654608         0.253790         0.867907
 H         0.017447        -0.610799         1.215445
 H        -0.315158         1.078533         0.719822
 H        -0.789213        -0.359195        -0.321864
 H         1.125915        -2.050055         0.417346
 H         2.218151        -2.076885        -1.086387
 H         3.944773        -2.734390         1.589859
 H         4.692566         0.560717         0.201087
 H         3.451822         1.297238        -2.032575
 H         3.298767        -0.520054        -2.309557
 H         2.947984         1.027289         1.644789
