19
Iteration:  2327
 C         0.179282         0.164364         0.468876
 C         1.527347        -0.217005        -0.138038
 C         2.019379        -1.752273        -0.022771
 C         3.203395        -1.072989         0.575689
 O         3.823399        -1.803119         1.600556
 C         3.821094         0.121822        -0.220831
 C         3.181778         0.432017        -1.561816
 O         1.743928         0.372056        -1.415515
 C         2.655056         0.337451         0.690455
 H         0.147141        -0.419985         1.428574
 H         0.013764         1.259550         0.728535
 H        -0.649786        -0.055808        -0.207084
 H         1.315865        -2.409673         0.426398
 H         2.182562        -2.310196        -1.047129
 H         4.544299        -2.341344         1.187766
 H         4.812838         0.554352         0.169046
 H         3.498345         1.353090        -1.950611
 H         3.544476        -0.239545        -2.332082
 H         2.594794         1.096766         1.506076
