19
Iteration:   689
 C        -0.038897         0.172470         0.256690
 C         1.436308        -0.190301        -0.084722
 C         2.014830        -1.620430        -0.013169
 C         3.257317        -1.039724         0.667657
 O         4.124023        -1.839999         1.365748
 C         3.682317         0.197279        -0.088070
 C         3.259739         0.251185        -1.567236
 O         1.851704         0.363973        -1.382051
 C         2.555205         0.312859         0.854491
 H        -0.708535        -0.262900         1.009424
 H        -0.084532         1.206579         0.634423
 H        -0.582441         0.187927        -0.620023
 H         1.460603        -2.311367         0.762938
 H         2.122811        -2.196248        -1.039134
 H         3.641752        -2.490507         1.889185
 H         4.620468         0.665346         0.253272
 H         3.813348         1.152460        -1.978445
 H         3.704286        -0.611565        -2.292786
 H         2.544685         1.027639         1.697359
