19
Iteration:  2801charge 0 multiplicity 1
 C         0.003028         0.314299         0.105335
 C         1.431957        -0.130743        -0.034836
 C         1.880626        -1.665952         0.119573
 C         3.274439        -1.171820         0.608901
 O         4.251910        -1.787290         1.338503
 C         3.781148         0.005996        -0.147258
 C         3.177842         0.461226        -1.448780
 O         1.769731         0.265128        -1.406553
 C         2.598362         0.249898         0.856875
 H        -0.450196        -0.088167         1.012482
 H        -0.038321         1.390144         0.258135
 H        -0.656305        -0.248841        -0.682114
 H         1.245701        -2.095136         0.910629
 H         1.871878        -2.351901        -0.811685
 H         3.845510        -2.167109         2.146443
 H         4.780640         0.407754         0.060250
 H         3.304880         1.570568        -1.333621
 H         3.553769        -0.096521        -2.329904
 H         2.577475         1.022413         1.499801
