19
Iteration:  4181charge 0 multiplicity 1
 C         0.005685         0.090266         0.187186
 C         1.489451        -0.134573        -0.083710
 C         1.992265        -1.550940         0.069950
 C         3.281956        -1.042226         0.624201
 O         3.971963        -1.890770         1.461957
 C         3.853209         0.112226        -0.174173
 C         3.151893         0.271146        -1.585572
 O         1.777263         0.538690        -1.308069
 C         2.664833         0.315872         0.854031
 H        -0.304458        -0.579711         0.955973
 H        -0.213587         1.102318         0.512540
 H        -0.424643        -0.233047        -0.787499
 H         1.414750        -2.065054         0.816882
 H         1.916922        -2.291499        -0.829594
 H         3.994948        -2.816678         1.181726
 H         4.796244         0.519073        -0.014651
 H         3.613741         0.912011        -2.444810
 H         3.335601        -0.705235        -2.065197
 H         2.751457         0.814756         1.882838
