19
Iteration:  4592
 C         0.055085         0.245495         0.267469
 C         1.474474        -0.101750        -0.092718
 C         1.947956        -1.664305        -0.029215
 C         3.199195        -1.086899         0.672707
 O         4.043838        -1.883924         1.447533
 C         3.773487         0.026488        -0.108453
 C         3.237427         0.338843        -1.510506
 O         1.749970         0.436679        -1.423404
 C         2.606765         0.270746         0.849855
 H        -0.099481        -0.009392         1.330087
 H        -0.107629         1.279310        -0.140978
 H        -0.656920        -0.516990        -0.319064
 H         1.407378        -2.145263         0.823564
 H         2.031150        -2.186927        -0.971174
 H         4.824619        -2.169103         0.966644
 H         4.852780         0.326650         0.169094
 H         3.723814         1.253654        -1.739576
 H         3.427974        -0.352354        -2.315258
 H         2.496304         1.082986         1.591065
