19
Iteration:  2734
 C        -0.054988         0.149148         0.377104
 C         1.480853        -0.129390        -0.133702
 C         2.000697        -1.693993        -0.010420
 C         3.238691        -1.043928         0.614386
 O         4.077318        -1.803545         1.458984
 C         3.800687         0.080146        -0.187143
 C         3.223422         0.324742        -1.589783
 O         1.803117         0.407442        -1.429959
 C         2.636846         0.293294         0.854505
 H        -0.347055        -0.073531         1.395953
 H        -0.255848         1.238414         0.312695
 H        -0.754042        -0.420721        -0.186676
 H         1.440517        -2.310418         0.659983
 H         2.192223        -2.098367        -1.045882
 H         3.587037        -2.309661         2.127683
 H         4.752232         0.506451        -0.017922
 H         3.601193         1.335254        -1.941556
 H         3.461803        -0.582460        -2.212698
 H         2.467682         1.044920         1.704986
