19
Iteration:  4839
 C         0.112896         0.351063         0.289152
 C         1.510056        -0.177462        -0.120338
 C         1.897905        -1.710064         0.086192
 C         3.257186        -1.100512         0.617091
 O         4.057455        -1.893971         1.444507
 C         3.786961         0.040759        -0.115366
 C         3.153502         0.474825        -1.501181
 O         1.754454         0.228775        -1.520758
 C         2.657258         0.328315         0.775853
 H         0.016381         0.107359         1.411631
 H         0.164919         1.486125         0.335285
 H        -0.649470         0.074399        -0.381448
 H         1.371352        -2.237005         0.921880
 H         1.830584        -2.357319        -0.761443
 H         3.581975        -2.227916         2.210976
 H         4.781735         0.339185         0.102439
 H         3.303601         1.561907        -1.636083
 H         3.545404        -0.103106        -2.335740
 H         2.696519         1.253833         1.331623
