19
Iteration:   381charge 0 multiplicity 1
 C        -0.026691         0.117769         0.189017
 C         1.467763        -0.166549        -0.124562
 C         1.985049        -1.630942         0.012288
 C         3.339874        -1.154797         0.607877
 O         4.067266        -1.795763         1.650663
 C         3.762340         0.097067        -0.216666
 C         3.209385         0.433690        -1.589059
 O         1.772863         0.417112        -1.421565
 C         2.622321         0.319798         0.845552
 H        -0.250057        -0.583125         1.015795
 H        -0.380065         1.107217         0.578597
 H        -0.735072        -0.156157        -0.723472
 H         1.441091        -2.083413         0.834464
 H         1.913179        -2.273475        -0.864320
 H         4.071683        -2.728152         1.350786
 H         4.640141         0.459548         0.235663
 H         3.567292         1.472188        -1.935164
 H         3.529179        -0.343087        -2.283781
 H         2.585016         0.752120         1.801340
