19
Iteration:  4176charge 0 multiplicity 1
 C        -0.021460         0.054743         0.196342
 C         1.493018        -0.131150        -0.097130
 C         1.959241        -1.580907         0.074138
 C         3.266574        -1.002686         0.617327
 O         3.961762        -1.878692         1.449879
 C         3.828010         0.108469        -0.189014
 C         3.193604         0.244433        -1.611744
 O         1.803873         0.575746        -1.289290
 C         2.664441         0.335349         0.856309
 H        -0.310354        -0.561059         1.115414
 H        -0.236087         1.108520         0.599831
 H        -0.228988        -0.374095        -0.825543
 H         1.478444        -2.063773         0.980520
 H         2.051809        -2.138313        -0.793667
 H         3.992599        -2.786412         1.070303
 H         4.955565         0.370251        -0.017328
 H         3.602897         0.870575        -2.312097
 H         3.269090        -0.792550        -2.011418
 H         2.711221         0.643304         1.840209
