19
Iteration:  4131
 C         0.033520         0.214436         0.283042
 C         1.454313        -0.089902        -0.095167
 C         1.962992        -1.626168        -0.105264
 C         3.200521        -1.144671         0.661603
 O         4.109303        -1.890169         1.605447
 C         3.767471         0.047634        -0.162993
 C         3.184771         0.348622        -1.587887
 O         1.719708         0.474225        -1.420490
 C         2.644367         0.239923         0.835444
 H        -0.157768         0.251520         1.439750
 H        -0.129691         1.308686         0.111723
 H        -0.611390        -0.510651        -0.273106
 H         1.263117        -2.253874         0.514097
 H         2.024765        -2.069734        -1.053429
 H         4.889745        -2.290769         1.155204
 H         4.877108         0.318360        -0.018193
 H         3.605889         1.278280        -1.787639
 H         3.580404        -0.262035        -2.397964
 H         2.552321         0.757609         1.776940
