19
Iteration:  2104
 C        -0.129450         0.121837         0.161757
 C         1.424990        -0.060379        -0.067279
 C         1.955325        -1.587589         0.112230
 C         3.248444        -1.004622         0.690781
 O         4.144370        -1.953580         1.376881
 C         3.763223         0.070790        -0.144289
 C         3.286915         0.263983        -1.562077
 O         1.807760         0.489640        -1.353403
 C         2.628643         0.365684         0.884429
 H        -0.337487        -0.326679         1.162484
 H        -0.321642         1.179309        -0.080200
 H        -0.609438        -0.482436        -0.634563
 H         1.509549        -2.006479         1.083986
 H         1.970862        -2.424763        -0.706157
 H         4.374158        -2.661753         0.732685
 H         4.773776         0.393447         0.167749
 H         3.559631         1.144468        -2.162145
 H         3.316635        -0.703057        -2.148729
 H         2.536670         1.034326         1.674885
