19
Iteration:  3306charge 0 multiplicity 1
 C         0.000195         0.205173         0.153111
 C         1.461424        -0.204919        -0.028329
 C         2.013008        -1.698616         0.008267
 C         3.188922        -1.052260         0.661757
 O         4.115634        -1.899536         1.353291
 C         3.707439         0.131856        -0.064088
 C         3.196562         0.357424        -1.511535
 O         1.825854         0.396650        -1.329928
 C         2.583982         0.369900         0.915132
 H        -0.244926        -0.016842         1.214816
 H        -0.302021         1.264464        -0.007657
 H        -0.623974        -0.288004        -0.671869
 H         1.361279        -2.254733         0.589798
 H         2.327894        -2.060630        -0.934015
 H         4.597545        -2.394863         0.653443
 H         4.805548         0.297146         0.270391
 H         3.544933         1.275486        -2.075737
 H         3.451015        -0.514128        -2.300690
 H         2.340834         1.185317         1.653111
