19
Iteration:  4788
 C        -0.053326         0.278208         0.091106
 C         1.464790        -0.007629        -0.012707
 C         1.863996        -1.572853         0.117038
 C         3.224719        -1.100422         0.583796
 O         4.232705        -1.802121         1.197342
 C         3.728173         0.061598        -0.044555
 C         3.271280         0.057319        -1.452434
 O         1.775071         0.417805        -1.295209
 C         2.636570         0.317690         0.880982
 H        -0.623381        -0.073186         0.876923
 H        -0.219829         1.355100         0.044279
 H        -0.224872        -0.141771        -0.959444
 H         1.282082        -1.895405         0.979321
 H         1.734871        -2.230334        -0.855264
 H         3.970590        -2.448891         1.871581
 H         4.720745         0.242093         0.184169
 H         3.776308         0.838653        -2.083166
 H         3.233193        -0.935320        -1.918901
 H         2.738869         0.789672         1.831919
