19
Iteration:  3951
 C         0.109901         0.186148         0.478073
 C         1.457453        -0.096841        -0.186495
 C         1.896971        -1.667239        -0.062698
 C         3.275359        -1.158656         0.515458
 O         3.885686        -1.871356         1.610705
 C         3.844551         0.101386        -0.163975
 C         3.190918         0.566515        -1.487314
 O         1.782491         0.335572        -1.497495
 C         2.658656         0.180449         0.717258
 H         0.191214        -0.355382         1.461028
 H        -0.068238         1.274468         0.375719
 H        -0.742513        -0.373448         0.018592
 H         1.418907        -2.191864         0.752321
 H         1.768318        -2.472707        -0.888197
 H         4.805268        -2.057016         1.356448
 H         4.778861         0.717471         0.197746
 H         3.445792         1.539175        -1.748526
 H         3.832146         0.061351        -2.272214
 H         2.803072         0.835175         1.573416
