19
Iteration:  2158charge 0 multiplicity 1
 C        -0.001079         0.225068         0.468866
 C         1.409499        -0.190858        -0.091198
 C         2.015419        -1.721026        -0.170973
 C         3.329119        -1.212042         0.558357
 O         3.865996        -1.673101         1.677110
 C         3.787743         0.054876        -0.296247
 C         3.221321         0.424249        -1.522858
 O         1.807220         0.453207        -1.470200
 C         2.679295         0.111661         0.756914
 H        -0.049683        -0.067178         1.584604
 H         0.138464         1.334129         0.619057
 H        -1.014407        -0.117626         0.083647
 H         1.583388        -2.573790         0.470420
 H         2.197287        -1.992860        -1.249526
 H         4.645828        -2.235408         1.434282
 H         4.779956         0.393260         0.189842
 H         3.515370         1.551311        -1.697645
 H         3.566647        -0.166362        -2.406477
 H         2.700514         0.840297         1.591138
