19
Iteration:  1836charge 0 multiplicity 1
 C         0.051694         0.229909         0.265406
 C         1.417685        -0.185952        -0.123355
 C         1.902998        -1.659949        -0.039676
 C         3.320550        -1.185677         0.575597
 O         4.156117        -1.781405         1.587863
 C         3.756235         0.040587        -0.229701
 C         3.184950         0.402379        -1.573918
 O         1.749427         0.426876        -1.378036
 C         2.622873         0.195058         0.784667
 H        -0.061775         0.091349         1.279073
 H         0.052631         1.249476         0.234476
 H        -0.692535        -0.220048        -0.326233
 H         1.408629        -2.225042         0.742975
 H         1.917934        -2.222390        -0.949244
 H         3.609149        -1.721757         2.384170
 H         4.670863         0.441261         0.147826
 H         3.589248         1.426359        -1.685105
 H         3.477259        -0.206564        -2.390298
 H         2.600658         0.769225         1.657798
