19
Iteration:  4123charge 0 multiplicity 1
 C         0.022646         0.316985         0.319664
 C         1.480444        -0.178515        -0.087853
 C         1.992132        -1.731540        -0.105190
 C         3.233974        -1.181947         0.647368
 O         4.034328        -1.851304         1.568265
 C         3.753287         0.058412        -0.168067
 C         3.170911         0.433599        -1.592817
 O         1.756383         0.424306        -1.426361
 C         2.647130         0.232582         0.870195
 H        -0.082303         0.236262         1.430890
 H        -0.078821         1.405187        -0.107702
 H        -0.790304        -0.304368        -0.213782
 H         1.340431        -2.271936         0.596813
 H         2.177672        -2.134813        -1.067543
 H         4.913232        -2.107336         1.226397
 H         4.837241         0.377165        -0.015215
 H         3.455114         1.473786        -1.783930
 H         3.494341        -0.299708        -2.312050
 H         2.609435         0.808794         1.747195
