19
Iteration:   556charge 0 multiplicity 1
 C        -0.052143         0.161710         0.162512
 C         1.492592        -0.082890        -0.138516
 C         1.952857        -1.568176         0.033095
 C         3.288582        -1.020156         0.707230
 O         4.229430        -1.816783         1.384853
 C         3.697932         0.127732        -0.053606
 C         3.211244         0.155107        -1.528981
 O         1.799178         0.482756        -1.444276
 C         2.531551         0.216873         0.941177
 H        -0.357107        -0.462066         0.974503
 H        -0.279411         1.203293         0.388453
 H        -0.751821        -0.132693        -0.593355
 H         1.294802        -2.156028         0.812019
 H         2.265504        -2.180719        -0.889514
 H         3.858297        -2.703499         1.346197
 H         4.671637         0.462357         0.355436
 H         3.616433         1.017767        -2.163890
 H         3.385587        -0.873488        -2.065497
 H         2.515883         1.048278         1.677248
