19
Iteration:  3151
 C        -0.062882         0.216280         0.006840
 C         1.417949        -0.129785        -0.083013
 C         1.865964        -1.543785         0.148856
 C         3.280021        -1.188622         0.641641
 O         4.280219        -1.980970         1.409453
 C         3.737899         0.044445        -0.149056
 C         3.211165         0.459760        -1.497703
 O         1.783600         0.428184        -1.324992
 C         2.554948         0.264065         0.912004
 H        -0.407123        -0.111967         1.023548
 H        -0.319232         1.246014        -0.148099
 H        -0.529317        -0.615951        -0.630387
 H         1.310050        -1.987985         0.915502
 H         1.721036        -2.165754        -0.724330
 H         5.097793        -1.868380         0.898158
 H         4.653499         0.453016         0.119063
 H         3.343260         1.473340        -1.666192
 H         3.465494        -0.260099        -2.243598
 H         2.726153         0.958601         1.722088
