19
Iteration:  2415
 C        -0.041115         0.232759         0.140937
 C         1.458979        -0.117687        -0.062637
 C         1.911174        -1.594093         0.111976
 C         3.343605        -1.123016         0.646809
 O         4.295242        -1.976797         1.292181
 C         3.686664         0.177532        -0.062721
 C         3.211345         0.279241        -1.483896
 O         1.727892         0.372825        -1.448485
 C         2.569770         0.332523         0.901693
 H        -0.465062         0.147767         1.227030
 H        -0.222486         1.341791        -0.167836
 H        -0.575308        -0.478772        -0.535285
 H         1.201923        -1.919416         0.843469
 H         1.802906        -2.158776        -0.899258
 H         4.053809        -2.182040         2.226308
 H         4.725743         0.691823         0.236495
 H         3.590540         1.162009        -1.963218
 H         3.558678        -0.504990        -2.172662
 H         2.423773         1.060576         1.759159
