19
Iteration:  3264
 C        -0.035043        -0.011491         0.248853
 C         1.474923        -0.090266        -0.105459
 C         1.969924        -1.626844        -0.079334
 C         3.299770        -1.190080         0.570423
 O         3.950034        -1.771649         1.577213
 C         3.800698         0.086071        -0.181848
 C         3.179894         0.352699        -1.604362
 O         1.795788         0.616211        -1.334279
 C         2.713540         0.220937         0.876003
 H        -0.216137        -0.647258         1.107961
 H        -0.403830         0.922202         0.751184
 H        -0.591906        -0.098946        -0.711738
 H         1.419137        -2.259725         0.698056
 H         1.959785        -2.139176        -1.058590
 H         4.821418        -2.147137         1.409735
 H         4.921219         0.303418        -0.124206
 H         3.520448         1.244056        -2.001990
 H         3.247888        -0.594047        -2.149001
 H         2.681036         0.774181         1.870913
