19
Iteration:  4476charge 0 multiplicity 1
 C        -0.060850         0.239834         0.083147
 C         1.447074        -0.100563        -0.064052
 C         1.996369        -1.596993         0.063990
 C         3.216542        -1.055921         0.640503
 O         4.092284        -1.904972         1.349356
 C         3.774344         0.145718        -0.133693
 C         3.175986         0.131241        -1.522350
 O         1.811015         0.526340        -1.310370
 C         2.615326         0.212523         0.979548
 H        -0.461493        -0.064477         1.044138
 H         0.013028         1.358037        -0.005533
 H        -0.493999        -0.279034        -0.725670
 H         1.458734        -1.876830         0.929255
 H         2.152294        -2.289561        -0.744122
 H         4.928645        -1.830005         0.871333
 H         4.806884         0.487238         0.273936
 H         3.564320         0.766135        -2.389017
 H         3.033018        -0.878981        -2.059082
 H         2.704866         0.709840         1.987704
