19
Iteration:  2520
 C         0.057930         0.126493         0.280942
 C         1.507079        -0.060854        -0.099623
 C         1.968464        -1.592161        -0.065824
 C         3.214188        -1.070049         0.587863
 O         4.157657        -1.820521         1.456178
 C         3.713944         0.116712        -0.165653
 C         3.153512         0.191282        -1.527450
 O         1.789248         0.451498        -1.397375
 C         2.613545         0.299541         0.880784
 H        -0.168016        -0.519745         1.097728
 H        -0.141846         1.140096         0.490191
 H        -0.547599        -0.200666        -0.621260
 H         1.272669        -2.233402         0.629770
 H         2.098637        -2.210577        -0.965558
 H         3.692699        -2.292890         2.181857
 H         4.762714         0.456355         0.167631
 H         3.540967         1.129405        -1.951624
 H         3.191374        -0.812186        -2.031840
 H         2.551437         1.074896         1.731059
