19
Iteration:  2729
 C        -0.077753         0.134250         0.350055
 C         1.486703        -0.118598        -0.126230
 C         1.985741        -1.703575        -0.036495
 C         3.217188        -1.004625         0.650651
 O         4.117208        -1.806673         1.474592
 C         3.810177         0.050678        -0.194316
 C         3.210907         0.293499        -1.590853
 O         1.798651         0.471587        -1.398080
 C         2.663822         0.284730         0.833674
 H        -0.253312        -0.082853         1.445451
 H        -0.488530         1.181625         0.219533
 H        -0.758248        -0.405968        -0.397882
 H         1.457677        -2.476634         0.659818
 H         2.158561        -2.193127        -1.038975
 H         3.627650        -2.329379         2.131147
 H         4.870732         0.451924        -0.025965
 H         3.602642         1.247816        -1.888571
 H         3.229155        -0.622803        -2.172501
 H         2.487770         1.110979         1.569036
