19
Iteration:  1146
 C        -0.045224         0.212240         0.231318
 C         1.458527        -0.123381        -0.080220
 C         2.032366        -1.661795         0.004774
 C         3.294740        -1.121129         0.568317
 O         4.130478        -1.866385         1.347259
 C         3.682641         0.139866        -0.065904
 C         3.235250         0.312359        -1.453001
 O         1.777134         0.382276        -1.404473
 C         2.576703         0.315458         0.852663
 H        -0.137577         0.444796         1.344257
 H        -0.323748         1.084632        -0.415100
 H        -0.532306        -0.743927         0.002656
 H         1.474170        -2.306002         0.802485
 H         2.099533        -2.178298        -1.056944
 H         3.628930        -2.177242         2.108880
 H         4.668605         0.498097         0.208435
 H         3.550999         1.357095        -1.891899
 H         3.762522        -0.498384        -2.090426
 H         2.610041         1.130729         1.568305
