19
Iteration:   511
 C         0.049055         0.245326         0.232258
 C         1.454547        -0.164662        -0.114764
 C         2.027219        -1.705806         0.016233
 C         3.276044        -1.114407         0.585415
 O         4.031672        -1.767716         1.534547
 C         3.813282        -0.027049        -0.232682
 C         3.173792         0.577317        -1.507309
 O         1.776138         0.239261        -1.434930
 C         2.609252         0.214087         0.827202
 H        -0.366693        -0.428194         0.920380
 H         0.029042         1.238754         0.601988
 H        -0.704811         0.264269        -0.580728
 H         1.444295        -2.108896         0.994039
 H         2.027029        -2.411489        -0.896742
 H         3.593388        -2.020579         2.351311
 H         4.756721         0.503532        -0.001793
 H         3.312033         1.703730        -1.393817
 H         3.536644         0.174327        -2.537409
 H         2.753573         0.981607         1.631977
