19
Iteration:  2050charge 0 multiplicity 1
 C         0.092303         0.325688         0.245176
 C         1.447144        -0.210149        -0.132908
 C         1.929410        -1.705205         0.101440
 C         3.221895        -1.125641         0.651263
 O         4.088003        -1.794035         1.449110
 C         3.732950         0.068891        -0.154878
 C         3.164945         0.390593        -1.539944
 O         1.770046         0.348528        -1.383046
 C         2.638662         0.250875         0.841127
 H        -0.227621         0.022227         1.284724
 H         0.061265         1.444687         0.193728
 H        -0.514605        -0.113892        -0.583424
 H         1.307495        -2.404236         0.759450
 H         2.084568        -2.350988        -0.877426
 H         4.902474        -2.108760         1.017044
 H         4.668050         0.527308         0.146518
 H         3.440296         1.322331        -1.975531
 H         3.510193        -0.302537        -2.392159
 H         2.447468         0.898828         1.607022
