19
Iteration:   362
 C         0.156651         0.108153         0.342067
 C         1.460285        -0.160565        -0.161790
 C         1.970326        -1.665873        -0.032238
 C         3.192160        -1.115010         0.652846
 O         3.952133        -1.717517         1.571850
 C         3.793079         0.142615        -0.114646
 C         3.212263         0.457651        -1.505518
 O         1.765369         0.276541        -1.547564
 C         2.627644         0.227141         0.840677
 H        -0.203451        -0.589203         1.130497
 H         0.119466         1.175594         0.763458
 H        -0.539485         0.107344        -0.510851
 H         1.280560        -2.123269         0.589942
 H         2.138361        -2.134865        -0.986657
 H         4.344515        -2.504336         1.172221
 H         4.827009         0.515789         0.056157
 H         3.406614         1.495542        -1.736121
 H         3.796309        -0.083120        -2.346154
 H         2.535007         1.014768         1.589989
