19
Iteration:  2288charge 0 multiplicity 1
 C        -0.074002         0.299566         0.280420
 C         1.406151        -0.052490        -0.136264
 C         1.940971        -1.684849         0.006469
 C         3.286163        -1.211889         0.616863
 O         4.150388        -1.828261         1.508266
 C         3.769749         0.067493        -0.115403
 C         3.234392         0.359293        -1.519678
 O         1.744070         0.363526        -1.456773
 C         2.659953         0.219001         0.823953
 H        -0.265468         0.069089         1.343966
 H        -0.286131         1.384636         0.125117
 H        -0.895845        -0.238616        -0.302730
 H         1.345622        -2.283646         0.789868
 H         1.949512        -2.238030        -0.925116
 H         5.044413        -1.932476         1.152697
 H         4.777408         0.616205         0.173572
 H         3.466481         1.452688        -1.822715
 H         3.369297        -0.450451        -2.281240
 H         2.643219         0.847964         1.812199
