19
Iteration:   601charge 0 multiplicity 1
 C        -0.010455         0.089350         0.146636
 C         1.482976        -0.141790        -0.088093
 C         1.970185        -1.560369         0.057437
 C         3.216693        -1.069385         0.664795
 O         4.094176        -1.870033         1.367652
 C         3.762698         0.141595        -0.125726
 C         3.244419         0.379731        -1.509225
 O         1.777431         0.377767        -1.454574
 C         2.622459         0.258603         0.958695
 H        -0.158735         0.126800         1.235272
 H        -0.241176         1.040513        -0.352001
 H        -0.573635        -0.742470        -0.172103
 H         1.498902        -2.134023         0.938393
 H         1.970431        -2.094870        -0.968474
 H         3.772345        -2.118306         2.246377
 H         4.723924         0.511957         0.133533
 H         3.560575         1.362583        -1.998629
 H         3.465349        -0.434534        -2.337289
 H         2.711586         0.935970         1.772151
