19
Iteration:    44charge 0 multiplicity 1
 C         0.101795         0.199773         0.422200
 C         1.446954        -0.243075        -0.041338
 C         1.949472        -1.747499        -0.070723
 C         3.212299        -1.145133         0.572487
 O         3.899604        -1.799391         1.645993
 C         3.802438         0.092816        -0.218906
 C         3.273807         0.582511        -1.518310
 O         1.843707         0.241178        -1.493670
 C         2.600617         0.369437         0.707852
 H        -0.213459        -0.294552         1.308807
 H         0.014460         1.219320         0.606623
 H        -0.695189        -0.075997        -0.234565
 H         1.340617        -2.540390         0.442433
 H         2.073508        -2.190613        -1.152591
 H         4.729625        -2.120033         1.287530
 H         4.740266         0.549060         0.129704
 H         3.448699         1.612343        -1.709767
 H         3.674636        -0.054518        -2.320441
 H         2.480290         1.263590         1.335871
