19
Iteration:  4867charge 0 multiplicity 1
 C         0.058202         0.241883         0.489537
 C         1.578173        -0.089096        -0.071445
 C         1.887734        -1.662148        -0.041809
 C         3.239566        -1.130976         0.558311
 O         3.896058        -1.741561         1.587042
 C         3.813985         0.000159        -0.233091
 C         3.200124         0.500517        -1.673239
 O         1.829202         0.267846        -1.507705
 C         2.707547         0.243017         0.799390
 H         0.230949        -0.031484         1.526443
 H        -0.193674         1.276851         0.352487
 H        -0.664564        -0.428385        -0.045165
 H         1.323358        -2.272481         0.689459
 H         1.846295        -2.442221        -1.027110
 H         3.402922        -2.392460         2.095001
 H         4.875864         0.297954         0.150655
 H         3.509534         1.564890        -1.870769
 H         3.592393        -0.217437        -2.495924
 H         2.789735         0.736910         1.782214
