19
Iteration:  4400
 C         0.126842         0.217480         0.406880
 C         1.504512        -0.185197        -0.073942
 C         1.886396        -1.614377         0.032743
 C         3.290635        -1.187239         0.521295
 O         3.827340        -1.900839         1.502645
 C         3.776415         0.145138        -0.170992
 C         3.266845         0.575514        -1.560796
 O         1.829365         0.207896        -1.435572
 C         2.662246         0.304362         0.699233
 H         0.143239        -0.275498         1.426560
 H         0.128994         1.341155         0.164766
 H        -0.672702        -0.248951        -0.198547
 H         1.390635        -2.065239         0.865545
 H         1.742183        -2.337854        -0.739921
 H         4.736956        -1.737827         1.755121
 H         4.748698         0.657984         0.265720
 H         3.266161         1.578073        -1.673578
 H         3.500791         0.027737        -2.442240
 H         2.475719         0.817344         1.609591
