19
Iteration:  2596charge 0 multiplicity 1
 C        -0.035124         0.331952         0.232208
 C         1.451921        -0.185212        -0.076746
 C         1.930645        -1.695058         0.032403
 C         3.294050        -1.197296         0.594399
 O         4.164208        -1.784461         1.514463
 C         3.747667         0.077318        -0.214449
 C         3.155714         0.491986        -1.527392
 O         1.796798         0.265146        -1.447094
 C         2.658583         0.280200         0.834294
 H        -0.299788         0.110037         1.256917
 H        -0.149371         1.376914         0.032793
 H        -0.706406        -0.429094        -0.271329
 H         1.357024        -2.128015         0.966460
 H         1.908696        -2.329631        -0.862791
 H         3.786513        -2.543375         1.979204
 H         4.802576         0.444668         0.016286
 H         3.313658         1.608742        -1.701904
 H         3.607809        -0.110973        -2.400417
 H         2.708841         0.810349         1.771254
