19
Iteration:  2760charge 0 multiplicity 1
 C         0.203062         0.244714         0.342091
 C         1.525092        -0.165391        -0.181913
 C         1.876817        -1.677775        -0.010370
 C         3.255472        -1.076697         0.554718
 O         4.089324        -1.844718         1.437524
 C         3.751802         0.204490        -0.113567
 C         3.176293         0.447425        -1.485480
 O         1.756387         0.177901        -1.472191
 C         2.562494         0.282415         0.845432
 H        -0.103760        -0.144577         1.329913
 H         0.205403         1.323988         0.401582
 H        -0.626622        -0.327200        -0.222282
 H         1.461284        -2.103914         0.893745
 H         1.773328        -2.140904        -0.927258
 H         3.536332        -2.184778         2.166399
 H         4.705129         0.677967         0.269075
 H         3.411975         1.459640        -1.799987
 H         3.668549        -0.245485        -2.228956
 H         2.369514         0.985735         1.615941
