19
Iteration:  3254charge 0 multiplicity 1
 C         0.038631        -0.005629         0.306423
 C         1.487814        -0.162044        -0.073611
 C         1.979744        -1.689462        -0.120227
 C         3.197823        -1.119245         0.544928
 O         3.933163        -1.743821         1.624709
 C         3.774165         0.062607        -0.229507
 C         3.202777         0.359261        -1.544458
 O         1.799975         0.604226        -1.286141
 C         2.707808         0.234534         0.787398
 H        -0.338770        -0.764008         0.981224
 H        -0.052958         1.071323         0.596012
 H        -0.603977        -0.120015        -0.570718
 H         1.356664        -2.413184         0.548123
 H         2.025084        -2.007324        -1.187176
 H         4.735250        -2.142058         1.234048
 H         4.802593         0.377563         0.014094
 H         3.675021         1.172111        -1.994562
 H         3.308402        -0.290311        -2.361225
 H         2.831148         0.948927         1.649954
