19
Iteration:  4815
 C        -0.002893         0.391034         0.135606
 C         1.445448        -0.120686        -0.083488
 C         1.852927        -1.641287         0.180608
 C         3.242992        -1.065169         0.685827
 O         4.234518        -1.909239         1.287486
 C         3.672505         0.091059        -0.125662
 C         3.243724         0.322841        -1.555928
 O         1.825798         0.280236        -1.390482
 C         2.577200         0.240367         0.874269
 H        -0.446974         0.110696         1.172256
 H         0.097833         1.512345         0.194382
 H        -0.510223         0.181327        -0.775491
 H         1.274555        -2.201079         0.935866
 H         1.797573        -2.115707        -0.689427
 H         4.082097        -2.206652         2.204448
 H         4.780192         0.279911         0.049755
 H         3.556591         1.312493        -1.901977
 H         3.482573        -0.526247        -2.301649
 H         2.683188         0.842011         1.784231
