19
Iteration:  1022charge 0 multiplicity 1
 C        -0.083186         0.187218         0.118958
 C         1.420085        -0.119164        -0.029547
 C         1.982050        -1.671822         0.048091
 C         3.269325        -1.050298         0.689123
 O         4.263515        -1.870268         1.262575
 C         3.765739         0.152589        -0.027771
 C         3.155521         0.136715        -1.548296
 O         1.809988         0.495363        -1.363386
 C         2.528483         0.388859         0.910905
 H        -0.407813        -0.475992         0.843997
 H        -0.297209         1.206628         0.251644
 H        -0.449370        -0.049149        -0.895505
 H         1.394598        -2.323830         0.771698
 H         2.254130        -2.311016        -0.907800
 H         3.966945        -2.275154         2.099374
 H         4.570616         0.769185         0.253698
 H         3.780255         0.858057        -2.161036
 H         3.286432        -0.908789        -1.996946
 H         2.416657         0.978204         1.780055
