19
Iteration:  4399
 C         0.123082         0.222858         0.411781
 C         1.501083        -0.187500        -0.076583
 C         1.896797        -1.605469         0.029413
 C         3.292679        -1.182625         0.522204
 O         3.827586        -1.905468         1.510653
 C         3.777757         0.142293        -0.175189
 C         3.264394         0.572046        -1.557883
 O         1.828932         0.210319        -1.440090
 C         2.663432         0.299487         0.700576
 H         0.154636        -0.265485         1.368881
 H         0.114798         1.325931         0.198123
 H        -0.695713        -0.220096        -0.193614
 H         1.379128        -2.133575         0.834811
 H         1.769228        -2.357147        -0.711074
 H         4.732434        -1.742136         1.763493
 H         4.728635         0.670046         0.265758
 H         3.254586         1.609920        -1.648193
 H         3.469713         0.012109        -2.474862
 H         2.492630         0.827916         1.575509
