19
Iteration:  4828charge 0 multiplicity 1
 C         0.101900         0.414938         0.217751
 C         1.439673        -0.166032        -0.062619
 C         1.943884        -1.666119         0.134412
 C         3.197456        -1.162819         0.690046
 O         4.158872        -1.924659         1.356657
 C         3.732920         0.036598        -0.166758
 C         3.227504         0.415969        -1.562679
 O         1.758851         0.254112        -1.473818
 C         2.605506         0.331567         0.837062
 H        -0.378001        -0.005777         1.170895
 H         0.117294         1.543170         0.231922
 H        -0.653076         0.087119        -0.439505
 H         1.330924        -2.044899         0.998840
 H         2.111324        -2.366165        -0.652285
 H         3.736051        -2.104733         2.220480
 H         4.640773         0.473828         0.199638
 H         3.447543         1.481159        -1.766214
 H         3.677329        -0.131531        -2.389131
 H         2.445631         1.083869         1.608815
