19
Iteration:  2291charge 0 multiplicity 1
 C        -0.054317         0.302528         0.317101
 C         1.420434        -0.054335        -0.136438
 C         1.942608        -1.694642         0.015087
 C         3.304694        -1.190009         0.595900
 O         4.119647        -1.826523         1.528865
 C         3.770067         0.074166        -0.121591
 C         3.223165         0.376124        -1.532721
 O         1.744732         0.349805        -1.480595
 C         2.655311         0.211552         0.828249
 H        -0.252911         0.030354         1.352872
 H        -0.222130         1.370828         0.182180
 H        -0.896160        -0.305017        -0.320260
 H         1.299627        -2.221711         0.731413
 H         1.984813        -2.087265        -1.002400
 H         5.037271        -1.895481         1.180908
 H         4.662392         0.513105         0.092979
 H         3.526518         1.423165        -1.796024
 H         3.421061        -0.431296        -2.197204
 H         2.605699         0.672249         1.782341
