19
Iteration:  2306charge 0 multiplicity 1
 C         0.150977         0.230334         0.390732
 C         1.474123        -0.219190        -0.044938
 C         1.942754        -1.604098        -0.084660
 C         3.222158        -1.113092         0.553801
 O         3.959218        -1.797210         1.577785
 C         3.737912         0.123426        -0.206369
 C         3.202266         0.401433        -1.580469
 O         1.781798         0.323210        -1.478425
 C         2.608378         0.219918         0.856211
 H         0.008518        -0.127475         1.432103
 H         0.003566         1.324597         0.382773
 H        -0.585465        -0.156349        -0.226490
 H         1.473199        -2.255847         0.647725
 H         1.919651        -2.278503        -1.000381
 H         4.896246        -1.880621         1.328622
 H         4.823666         0.357502         0.065259
 H         3.424308         1.391403        -1.924898
 H         3.637379        -0.278051        -2.359440
 H         2.610480         0.770089         1.819093
