19
Iteration:   794charge 0 multiplicity 1
 C         0.088519         0.290278         0.482011
 C         1.446093        -0.205107        -0.171550
 C         2.002807        -1.714588        -0.119901
 C         3.184781        -1.116452         0.631846
 O         4.046359        -1.764237         1.473429
 C         3.753410         0.141002        -0.111198
 C         3.279560         0.504937        -1.496576
 O         1.774900         0.192357        -1.524453
 C         2.564414         0.240098         0.733387
 H         0.348484         0.061515         1.565764
 H        -0.258848         1.345257         0.193251
 H        -0.814537        -0.457262         0.210033
 H         1.372495        -2.259256         0.537426
 H         2.190820        -2.353777        -0.923381
 H         3.653866        -2.284504         2.176474
 H         4.650635         0.604745         0.322815
 H         3.615572         1.595646        -1.607136
 H         3.896112        -0.020262        -2.237029
 H         2.509410         0.979583         1.554077
