19
Iteration:  2033
 C         0.008134         0.289677         0.431120
 C         1.462142        -0.188583        -0.112103
 C         1.962022        -1.685345        -0.037931
 C         3.271266        -1.142326         0.580092
 O         4.040424        -1.827637         1.618697
 C         3.760550         0.063044        -0.182219
 C         3.265735         0.416881        -1.543840
 O         1.747867         0.312324        -1.509537
 C         2.546949         0.263983         0.727790
 H        -0.019440        -0.189193         1.373040
 H         0.114916         1.353644         0.420354
 H        -0.959459         0.093378        -0.117947
 H         1.496763        -2.105568         0.801315
 H         1.894519        -2.299146        -0.846847
 H         4.902466        -2.003509         1.166826
 H         4.854535         0.375271         0.030885
 H         3.496045         1.564494        -1.734283
 H         3.576596        -0.093169        -2.424241
 H         2.840249         1.081323         1.594711
