19
Iteration:   328
 C         0.027151         0.278370         0.377417
 C         1.449572        -0.200403        -0.148287
 C         2.018884        -1.725804        -0.050844
 C         3.285270        -1.164328         0.597443
 O         3.973140        -1.795419         1.588957
 C         3.762928         0.122269        -0.145809
 C         3.262838         0.474183        -1.509865
 O         1.806313         0.304734        -1.546913
 C         2.516429         0.210862         0.827799
 H        -0.098884        -0.086931         1.411965
 H        -0.013438         1.410759         0.400458
 H        -0.847559        -0.143047        -0.242643
 H         1.462882        -2.337853         0.550996
 H         2.071051        -2.261003        -0.980069
 H         4.928531        -1.775185         1.372821
 H         4.669341         0.553150         0.227165
 H         3.442424         1.529215        -1.693211
 H         3.744089        -0.173741        -2.315639
 H         2.427621         0.935551         1.585120
