19
Iteration:  3171charge 0 multiplicity 1
 C        -0.034560         0.140458         0.159567
 C         1.475635        -0.114428        -0.051851
 C         1.893997        -1.672497         0.099890
 C         3.191410        -1.168157         0.672861
 O         4.122575        -1.895196         1.348993
 C         3.760371         0.117303        -0.102727
 C         3.220524         0.518693        -1.501868
 O         1.796957         0.340447        -1.457111
 C         2.687322         0.329451         0.962172
 H        -0.463294         0.178803         1.170975
 H        -0.228231         1.162288        -0.267385
 H        -0.543804        -0.521954        -0.544541
 H         1.338275        -2.153660         0.819814
 H         1.846540        -2.237633        -0.810337
 H         4.682815        -2.306859         0.653952
 H         4.689991         0.440557         0.126267
 H         3.486428         1.549355        -1.637134
 H         3.596651        -0.227541        -2.190922
 H         2.686867         0.929461         1.921918
