19
Iteration:  2858
 C         0.038829         0.068692         0.282119
 C         1.467043        -0.107642        -0.115426
 C         1.937442        -1.581882        -0.073172
 C         3.263539        -1.068737         0.674908
 O         4.151974        -1.923076         1.395668
 C         3.785598         0.116992        -0.074034
 C         3.215474         0.224544        -1.498012
 O         1.742784         0.496123        -1.382814
 C         2.570773         0.424420         0.801654
 H        -0.064152        -0.255153         1.369982
 H        -0.207837         1.135758         0.244727
 H        -0.802874        -0.505863        -0.360463
 H         1.225873        -2.120693         0.588833
 H         2.149199        -2.046346        -1.048996
 H         3.680409        -2.525161         1.996782
 H         4.789932         0.643582         0.108188
 H         3.726001         0.834220        -2.266408
 H         3.448797        -0.716974        -2.061378
 H         2.539207         1.227894         1.611023
