19
Iteration:  2641
 C         0.148892         0.279629         0.268530
 C         1.504090        -0.097726        -0.150026
 C         1.920262        -1.682349         0.099053
 C         3.151621        -1.114610         0.703213
 O         4.184687        -1.832444         1.370697
 C         3.667016         0.168032        -0.086504
 C         3.192443         0.473446        -1.581459
 O         1.770755         0.155009        -1.508926
 C         2.621652         0.303647         0.886488
 H        -0.126761        -0.232425         1.191096
 H         0.121779         1.317675         0.469779
 H        -0.597739        -0.139630        -0.460323
 H         1.205979        -2.250666         0.843095
 H         2.145212        -2.200454        -0.853920
 H         3.701293        -2.422174         1.981582
 H         4.621838         0.467458         0.225857
 H         3.314891         1.530618        -1.875111
 H         3.553599        -0.304803        -2.298809
 H         2.447757         0.858754         1.674039
