19
Iteration:  1438charge 0 multiplicity 1
 C         0.029854         0.132983         0.368937
 C         1.506898        -0.169035        -0.097805
 C         1.932008        -1.722825         0.002779
 C         3.215224        -1.089296         0.611157
 O         3.988500        -1.806538         1.550709
 C         3.797938         0.058375        -0.180806
 C         3.230294         0.388377        -1.583309
 O         1.762957         0.430180        -1.457272
 C         2.693457         0.352881         0.717438
 H         0.003006        -0.226297         1.369276
 H        -0.049353         1.224602         0.248972
 H        -0.629965        -0.244384        -0.446935
 H         1.350257        -2.459478         0.663069
 H         2.136705        -2.218914        -0.987272
 H         3.700894        -1.770719         2.466840
 H         4.866695         0.249546        -0.038127
 H         3.669412         1.341245        -1.764521
 H         3.448902        -0.267776        -2.446594
 H         2.749628         0.728951         1.740840
