19
Iteration:  1052
 C        -0.006828         0.136505         0.160024
 C         1.449865        -0.152829        -0.068078
 C         1.978833        -1.556944         0.041791
 C         3.271277        -1.012554         0.673197
 O         4.167667        -1.841741         1.397222
 C         3.798933         0.130222        -0.097128
 C         3.176988         0.221031        -1.568069
 O         1.752336         0.416882        -1.371719
 C         2.594308         0.325386         0.889114
 H        -0.466805        -0.660443         0.763437
 H        -0.229373         1.151933         0.628735
 H        -0.531715         0.132459        -0.842606
 H         1.407646        -2.135258         0.726773
 H         2.148581        -2.085288        -0.862267
 H         3.813452        -2.733857         1.526460
 H         4.752095         0.585948         0.140691
 H         3.605923         1.044126        -2.153099
 H         3.360164        -0.694756        -2.150900
 H         2.406411         0.861176         1.813282
