19
Iteration:  1472
 C         0.002205         0.095392         0.232521
 C         1.432813        -0.067563        -0.117231
 C         1.969108        -1.572612        -0.010194
 C         3.219617        -1.095528         0.691635
 O         4.169510        -1.871491         1.379103
 C         3.772507         0.156008        -0.091666
 C         3.195023         0.077849        -1.509996
 O         1.793402         0.550470        -1.459711
 C         2.620926         0.356060         0.863591
 H        -0.366464        -0.095155         1.228691
 H        -0.297947         1.159571         0.151998
 H        -0.654356        -0.575782        -0.342459
 H         1.280910        -2.131887         0.683012
 H         1.967810        -2.102518        -0.985374
 H         3.881595        -1.949897         2.303825
 H         4.782995         0.557792         0.177247
 H         3.749677         0.710081        -2.142916
 H         3.189594        -0.939571        -1.960691
 H         2.661306         0.867853         1.830139
