19
Iteration:  1363charge 0 multiplicity 1
 C        -0.015137         0.279742         0.188482
 C         1.458134        -0.174776        -0.049791
 C         1.880100        -1.612463         0.126663
 C         3.171883        -1.073194         0.637234
 O         4.261251        -1.835734         1.245840
 C         3.665992         0.120033        -0.057989
 C         3.257991         0.257302        -1.478869
 O         1.865376         0.311485        -1.433297
 C         2.528525         0.363085         0.842455
 H        -0.353437        -0.239394         1.219226
 H        -0.014978         1.444104         0.151319
 H        -0.528440        -0.170248        -0.750805
 H         1.349591        -2.071252         0.960210
 H         1.862960        -2.163654        -0.795004
 H         3.897960        -2.388617         1.981989
 H         4.594033         0.542399         0.289793
 H         3.722259         1.142227        -1.998097
 H         3.681652        -0.707668        -2.029107
 H         2.539140         0.834670         1.828237
