19
Iteration:  1164
 C        -0.080487         0.082808         0.132927
 C         1.428305        -0.137421        -0.067205
 C         1.891306        -1.552898         0.056786
 C         3.231348        -1.032820         0.693611
 O         4.242614        -1.889479         1.243137
 C         3.786052         0.106928        -0.087931
 C         3.253170         0.225521        -1.515123
 O         1.844292         0.486388        -1.341958
 C         2.547950         0.341343         0.917967
 H        -0.216677         0.199995         1.229233
 H        -0.325927         0.988501        -0.416226
 H        -0.725423        -0.713452        -0.347789
 H         1.333649        -2.061727         0.829313
 H         1.930884        -2.198049        -0.797121
 H         3.917872        -2.281874         2.062551
 H         4.760203         0.512508         0.311994
 H         3.678398         0.973803        -2.155882
 H         3.237991        -0.672657        -2.125814
 H         2.477637         1.056949         1.779943
