19
Iteration:  2164charge 0 multiplicity 1
 C         0.084598         0.242710         0.497161
 C         1.418353        -0.199775        -0.126846
 C         2.006151        -1.739521        -0.199617
 C         3.283553        -1.218580         0.528066
 O         3.880862        -1.656953         1.717046
 C         3.789734         0.030205        -0.276627
 C         3.213638         0.478158        -1.519845
 O         1.783237         0.454645        -1.461330
 C         2.653087         0.075084         0.768933
 H        -0.053322        -0.102989         1.510110
 H         0.005967         1.336497         0.629956
 H        -0.846688         0.003093         0.043726
 H         1.735361        -2.557529         0.417074
 H         2.164885        -2.138979        -1.214513
 H         4.655625        -2.199935         1.502387
 H         4.685108         0.461976        -0.007529
 H         3.558625         1.437450        -1.804030
 H         3.637213        -0.162741        -2.322390
 H         2.572420         0.891530         1.466787
