19
Iteration:  2308
 C         0.173563         0.214689         0.392929
 C         1.476283        -0.222121        -0.045210
 C         1.941260        -1.612369        -0.102653
 C         3.211497        -1.115913         0.561101
 O         3.938062        -1.789855         1.573308
 C         3.734409         0.128408        -0.205704
 C         3.208905         0.403351        -1.589873
 O         1.785703         0.320421        -1.466355
 C         2.615170         0.226719         0.852481
 H         0.013413        -0.146096         1.425322
 H         0.059765         1.315011         0.396112
 H        -0.596649        -0.127562        -0.187523
 H         1.503884        -2.270805         0.703345
 H         1.926912        -2.265010        -0.977719
 H         4.886397        -1.899219         1.337326
 H         4.860536         0.392644         0.081667
 H         3.363709         1.453062        -1.906404
 H         3.587175        -0.323318        -2.396489
 H         2.611895         0.855838         1.821279
