19
Iteration:  3503charge 0 multiplicity 1
 C         0.104297         0.228730         0.264657
 C         1.490687        -0.197708        -0.082105
 C         1.892069        -1.666954         0.162873
 C         3.244889        -1.148656         0.551908
 O         3.972952        -1.923015         1.421836
 C         3.719459         0.197897        -0.188581
 C         3.211670         0.626384        -1.486987
 O         1.884036         0.226348        -1.478928
 C         2.622256         0.265618         0.833990
 H        -0.191870         0.120875         1.277428
 H         0.012202         1.283681        -0.035043
 H        -0.542423        -0.538423        -0.130748
 H         1.315546        -2.208565         0.956576
 H         1.660364        -2.512101        -0.682099
 H         4.889645        -1.922302         1.125173
 H         4.750674         0.441458         0.179767
 H         3.064816         1.784599        -1.597779
 H         3.691713         0.165162        -2.320038
 H         2.354405         0.610228         1.831614
