19
Iteration:  3849
 C         0.010763         0.092432         0.232495
 C         1.470790        -0.097845        -0.076445
 C         1.981832        -1.523432        -0.087129
 C         3.232770        -1.127060         0.634717
 O         4.024591        -1.918817         1.452903
 C         3.752702         0.077612        -0.118366
 C         3.151395         0.341651        -1.536818
 O         1.780483         0.478492        -1.378522
 C         2.684821         0.334648         0.933321
 H        -0.078009        -0.183733         1.217623
 H        -0.303729         1.116742         0.290496
 H        -0.573955        -0.528606        -0.422192
 H         1.391756        -2.177278         0.639147
 H         1.983622        -2.076402        -1.083785
 H         4.785271        -2.266564         0.940161
 H         4.828601         0.178192        -0.008792
 H         3.730419         1.165054        -1.863971
 H         3.359472        -0.637369        -2.076057
 H         2.708705         1.035837         1.766815
