19
Iteration:   948charge 0 multiplicity 1
 C         0.197014         0.246222         0.323626
 C         1.542610        -0.160416        -0.151130
 C         1.985891        -1.750804         0.042299
 C         3.258232        -1.120176         0.617934
 O         3.973663        -1.846706         1.549879
 C         3.772535         0.166880        -0.164286
 C         3.121949         0.582743        -1.546930
 O         1.712306         0.211358        -1.562098
 C         2.659946         0.268644         0.794809
 H         0.333582         0.170445         1.451129
 H        -0.134602         1.295135         0.105255
 H        -0.448238        -0.632774         0.021740
 H         1.486240        -2.453928         0.730438
 H         1.994864        -2.062125        -0.997717
 H         3.361616        -2.464211         2.017001
 H         4.629676         0.641790         0.207682
 H         3.210881         1.650652        -1.321056
 H         3.700799         0.145706        -2.329203
 H         2.571936         0.821157         1.668783
