19
Iteration:  2037charge 0 multiplicity 1
 C         0.032111         0.284479         0.342788
 C         1.438981        -0.179161        -0.098987
 C         1.964090        -1.726178        -0.014897
 C         3.247163        -1.127787         0.583624
 O         4.069768        -1.832495         1.588475
 C         3.746908         0.062685        -0.190936
 C         3.265767         0.423629        -1.543530
 O         1.735144         0.320765        -1.457907
 C         2.571297         0.294630         0.749869
 H        -0.084469        -0.109142         1.403422
 H         0.197384         1.406125         0.362410
 H        -0.910876         0.146505        -0.107866
 H         1.484034        -2.135852         0.948587
 H         1.915944        -2.384637        -0.962673
 H         4.872550        -1.988479         1.064985
 H         4.677605         0.407143         0.144056
 H         3.527936         1.489256        -1.638509
 H         3.593349        -0.274761        -2.360896
 H         2.784787         0.986150         1.487277
