19
Iteration:  3482
 C         0.033055         0.172909         0.217586
 C         1.469441        -0.170123        -0.060794
 C         1.916421        -1.675014         0.000279
 C         3.275374        -1.098984         0.618729
 O         3.968828        -1.852533         1.485468
 C         3.835152         0.024731        -0.206732
 C         3.196522         0.564956        -1.469096
 O         1.752902         0.323083        -1.411847
 C         2.695539         0.273274         0.857597
 H        -0.233441        -0.255327         1.177293
 H        -0.144979         1.287753         0.104914
 H        -0.652160        -0.472424        -0.337490
 H         1.356559        -2.287605         0.768481
 H         1.783642        -2.352879        -0.901057
 H         4.872204        -2.011767         1.144203
 H         4.774230         0.513536         0.192708
 H         3.552673         1.623365        -1.652256
 H         3.383374         0.034220        -2.409837
 H         2.837297         1.036278         1.612996
