19
Iteration:  3209
 C         0.072502         0.205718         0.422672
 C         1.455570        -0.224793        -0.111580
 C         1.973685        -1.700649        -0.135612
 C         3.279112        -1.098897         0.568832
 O         4.003307        -1.859449         1.568117
 C         3.720014         0.199946        -0.104893
 C         3.240301         0.513044        -1.537376
 O         1.787726         0.370808        -1.511980
 C         2.613684         0.198010         0.846067
 H        -0.023626        -0.168820         1.452337
 H        -0.122503         1.285229         0.295093
 H        -0.759572        -0.253623        -0.193529
 H         1.345669        -2.281609         0.658854
 H         2.111484        -2.181092        -1.137944
 H         4.158981        -2.793002         1.338477
 H         4.699323         0.834453         0.190348
 H         3.484842         1.425921        -2.069170
 H         3.750965        -0.116024        -2.263201
 H         2.577801         0.708437         1.818940
