19
Iteration:  3735charge 0 multiplicity 1
 C         0.050692         0.155797         0.024008
 C         1.485829        -0.128705        -0.052423
 C         1.917734        -1.574958         0.161490
 C         3.224594        -1.082160         0.627655
 O         4.117744        -1.993894         1.233553
 C         3.714297         0.222912        -0.041241
 C         3.195616         0.289011        -1.535535
 O         1.804914         0.441875        -1.265013
 C         2.601968         0.317037         0.984260
 H        -0.543512        -0.368625         0.821839
 H        -0.002679         1.176993         0.268630
 H        -0.342311        -0.132732        -0.899912
 H         1.245631        -2.074803         0.919671
 H         1.910595        -2.330666        -0.680610
 H         4.965934        -1.927523         0.745755
 H         4.703044         0.457199         0.134043
 H         3.478938         1.172379        -2.229639
 H         3.130386        -0.681571        -2.147666
 H         2.543893         0.905531         1.925746
