19
Iteration:  4365
 C         0.138327         0.241955         0.299504
 C         1.509912        -0.169360        -0.103746
 C         2.000420        -1.655530        -0.057713
 C         3.170978        -1.128791         0.686968
 O         4.001269        -1.921722         1.549709
 C         3.733959         0.029501        -0.168644
 C         3.159293         0.407781        -1.583339
 O         1.707538         0.395631        -1.456314
 C         2.682103         0.309606         0.840099
 H        -0.288932        -0.145020         1.206748
 H         0.048394         1.306531         0.676380
 H        -0.581414         0.028404        -0.543449
 H         1.255744        -2.325857         0.391989
 H         2.414195        -2.062267        -0.976898
 H         4.797740        -1.386010         1.695547
 H         4.806465         0.203598         0.114494
 H         3.571242         1.336151        -1.818630
 H         3.464226        -0.219421        -2.464267
 H         2.562785         1.000021         1.633717
