19
Iteration:  1495charge 0 multiplicity 1
 C        -0.041210         0.207333         0.081967
 C         1.448858        -0.109808        -0.054232
 C         1.985460        -1.615644         0.088627
 C         3.247359        -1.078360         0.694745
 O         4.179816        -1.828852         1.331426
 C         3.756400         0.126494        -0.147381
 C         3.171660         0.196238        -1.566849
 O         1.823250         0.406210        -1.287070
 C         2.595636         0.343095         0.900564
 H        -0.593551         0.082085         1.024079
 H        -0.239673         1.291283        -0.034947
 H        -0.588417        -0.485448        -0.554613
 H         1.400449        -2.161627         0.861988
 H         2.050340        -2.234061        -0.821584
 H         3.728800        -2.551221         1.823168
 H         4.796997         0.341359         0.147313
 H         3.579006         0.988279        -2.138619
 H         3.239586        -0.747425        -2.186666
 H         2.756593         1.163461         1.569240
