19
Iteration:  1909
 C        -0.035428         0.251946         0.164018
 C         1.406998        -0.147238        -0.055017
 C         1.887383        -1.575141         0.210353
 C         3.261997        -1.089657         0.660294
 O         4.222233        -1.939773         1.239732
 C         3.738503         0.130249        -0.117212
 C         3.252947         0.382071        -1.517373
 O         1.835375         0.244347        -1.489089
 C         2.535859         0.370814         0.913424
 H        -0.337608        -0.034530         1.238964
 H        -0.078207         1.391490         0.188217
 H        -0.638615        -0.278071        -0.638106
 H         1.381095        -2.022871         1.078227
 H         1.752069        -2.202130        -0.691881
 H         3.976341        -2.157891         2.166248
 H         4.717568         0.450157         0.217891
 H         3.553789         1.352879        -1.977756
 H         3.711422        -0.397234        -2.144991
 H         2.607655         0.891839         1.804111
