19
Iteration:  2616
 C         0.077964         0.334020         0.310761
 C         1.425993        -0.185295        -0.112898
 C         1.913867        -1.756390         0.094071
 C         3.266555        -1.093872         0.543935
 O         4.112019        -1.711060         1.437178
 C         3.768877         0.086871        -0.136248
 C         3.275574         0.529464        -1.494398
 O         1.782666         0.151052        -1.456775
 C         2.556941         0.189935         0.763014
 H        -0.174157         0.147195         1.363985
 H         0.254437         1.445906         0.225558
 H        -0.799964        -0.094345        -0.328922
 H         1.481469        -2.242051         1.029232
 H         1.870637        -2.320311        -0.816606
 H         3.621525        -2.539916         1.616102
 H         4.782224         0.508553         0.223032
 H         3.211895         1.588128        -1.502549
 H         3.582934        -0.023510        -2.376738
 H         2.570439         0.975837         1.619417
