19
Iteration:  3804
 C         0.221538         0.103622         0.408262
 C         1.539738        -0.188865        -0.207982
 C         2.038547        -1.729821        -0.092907
 C         3.216064        -1.172144         0.496697
 O         3.801533        -1.844933         1.598066
 C         3.706672         0.088779        -0.168140
 C         3.167876         0.520393        -1.566233
 O         1.734621         0.516578        -1.389281
 C         2.686401         0.234912         0.802576
 H         0.258539        -0.038508         1.456409
 H         0.198483         1.160005         0.486691
 H        -0.639212        -0.390396         0.008533
 H         1.272601        -2.395467         0.532954
 H         2.128221        -2.338335        -1.055755
 H         4.763974        -1.711489         1.706900
 H         4.804248         0.335807         0.164610
 H         3.442021         1.607409        -1.741908
 H         3.599432        -0.297192        -2.311326
 H         2.795847         0.790043         1.706963
