19
Iteration:  1110
 C         0.156517         0.251634         0.352305
 C         1.508162        -0.184788        -0.128634
 C         1.976004        -1.758902        -0.043049
 C         3.245347        -1.219267         0.549583
 O         4.028891        -1.731936         1.605353
 C         3.686134         0.096264        -0.199668
 C         3.195453         0.598926        -1.478144
 O         1.760219         0.279071        -1.506498
 C         2.648013         0.224105         0.787774
 H         0.111812         0.231623         1.491848
 H        -0.200286         1.217981        -0.045322
 H        -0.629529        -0.508986        -0.004302
 H         1.381575        -2.415185         0.673797
 H         2.077585        -2.405632        -1.011818
 H         3.557560        -2.511719         1.928543
 H         4.728512         0.348980         0.109904
 H         3.231823         1.751098        -1.545661
 H         3.635613         0.157346        -2.450144
 H         2.635158         1.032307         1.551551
