19
Iteration:  4070charge 0 multiplicity 1
 C         0.050167         0.317326         0.291428
 C         1.444217        -0.101692        -0.095086
 C         1.848912        -1.619428         0.087194
 C         3.193083        -1.162532         0.656530
 O         4.105427        -1.868796         1.438551
 C         3.717366         0.139251        -0.160263
 C         3.264429         0.550259        -1.492244
 O         1.826686         0.153701        -1.509624
 C         2.630899         0.187701         0.884314
 H        -0.131112        -0.323643         1.043895
 H        -0.065709         1.389622         0.368710
 H        -0.753292         0.074989        -0.408330
 H         1.314959        -2.238472         0.868896
 H         1.903367        -2.254762        -0.925547
 H         4.702518        -2.334044         0.809575
 H         4.761542         0.440515         0.177692
 H         3.187378         1.734467        -1.710178
 H         3.755400         0.048953        -2.401563
 H         2.761161         0.913114         1.619914
