19
Iteration:  3938
 C         0.087983         0.231146         0.386222
 C         1.474470        -0.214778        -0.108711
 C         1.972727        -1.668125         0.010802
 C         3.235658        -1.119377         0.524199
 O         3.866377        -1.859015         1.509553
 C         3.822545         0.093412        -0.202344
 C         3.242941         0.592051        -1.515590
 O         1.787604         0.258803        -1.458636
 C         2.672308         0.248361         0.800551
 H        -0.082165        -0.120809         1.338940
 H         0.026621         1.305502         0.545893
 H        -0.709340        -0.047332        -0.294643
 H         1.498455        -2.105273         0.913490
 H         1.945080        -2.281495        -0.973880
 H         4.735466        -2.160612         1.169787
 H         4.787645         0.392498         0.201946
 H         3.298276         1.649462        -1.476882
 H         3.494927         0.113647        -2.455921
 H         2.571610         0.647452         1.835672
