19
Iteration:   836charge 0 multiplicity 1
 C         0.051559         0.123958         0.212020
 C         1.481911        -0.112155        -0.140048
 C         1.942834        -1.627619         0.083396
 C         3.238597        -1.095208         0.647231
 O         4.148490        -1.848370         1.458543
 C         3.712694         0.146063        -0.185119
 C         3.246043         0.406440        -1.516278
 O         1.740397         0.352857        -1.406668
 C         2.664432         0.264876         0.857333
 H        -0.316636        -0.337702         1.095825
 H        -0.255653         1.162080         0.154211
 H        -0.667894        -0.226241        -0.589730
 H         1.229380        -2.074522         0.794558
 H         1.997379        -2.188000        -0.883205
 H         3.481635        -2.403125         1.909860
 H         4.698661         0.577064         0.034051
 H         3.455677         1.366912        -1.994563
 H         3.458193        -0.445719        -2.195866
 H         2.789530         0.971682         1.708463
