19
Iteration:  2064charge 0 multiplicity 1
 C         0.091549         0.274463         0.090772
 C         1.509739        -0.134603         0.011448
 C         1.905164        -1.661618         0.075124
 C         3.181619        -1.115018         0.669372
 O         4.176271        -1.816645         1.404102
 C         3.717676         0.176088        -0.143783
 C         3.151871         0.306530        -1.581172
 O         1.744694         0.360473        -1.355817
 C         2.619676         0.212283         0.955720
 H        -0.456127        -0.002008         0.985287
 H         0.014574         1.344222        -0.032527
 H        -0.568114        -0.194927        -0.728138
 H         1.303116        -2.049608         0.864336
 H         1.899129        -2.216395        -0.881113
 H         4.675564        -2.161090         0.652571
 H         4.859668         0.147287        -0.009112
 H         3.502780         1.242737        -2.002211
 H         3.415342        -0.616261        -2.127992
 H         2.630961         0.858699         1.952134
