19
Iteration:  1241
 C         0.171524         0.204648         0.396156
 C         1.485397        -0.217337        -0.149297
 C         1.974798        -1.662884        -0.115601
 C         3.254615        -1.075175         0.634572
 O         4.042149        -1.793793         1.534493
 C         3.764915         0.117912        -0.087452
 C         3.232511         0.417149        -1.569574
 O         1.706225         0.312707        -1.546392
 C         2.578894         0.234267         0.842284
 H        -0.295198        -0.481831         1.180926
 H         0.449463         1.139896         0.864666
 H        -0.522820         0.170333        -0.476477
 H         1.394078        -2.153460         0.619817
 H         2.004319        -2.147018        -1.034264
 H         3.570868        -1.809509         2.394211
 H         4.783956         0.435281         0.142454
 H         3.429487         1.446772        -1.831096
 H         3.418351        -0.227871        -2.439363
 H         2.383608         0.846733         1.713809
