19
Iteration:  4465
 C        -0.039953         0.278424         0.043854
 C         1.478164        -0.119458        -0.053238
 C         1.982177        -1.640260         0.082713
 C         3.314437        -1.122108         0.664334
 O         4.153180        -1.948908         1.348404
 C         3.682968         0.109294        -0.060523
 C         3.131641         0.154762        -1.537036
 O         1.789264         0.546660        -1.301234
 C         2.611246         0.301932         0.925457
 H        -0.497307         0.142080         1.023600
 H        -0.181350         1.351361        -0.276365
 H        -0.717960        -0.182448        -0.641438
 H         1.356384        -2.204515         0.722365
 H         1.868634        -2.232033        -0.811360
 H         5.062834        -1.868864         0.977620
 H         4.712971         0.607417         0.136794
 H         3.655365         0.913379        -2.207869
 H         3.276391        -0.931147        -1.853155
 H         2.597965         1.039933         1.762771
