19
Iteration:  2754
 C         0.187878         0.196134         0.328388
 C         1.486702        -0.186222        -0.109647
 C         1.916210        -1.600681        -0.035771
 C         3.255451        -1.041793         0.540098
 O         4.084001        -1.844782         1.457390
 C         3.704137         0.190153        -0.077965
 C         3.222807         0.407756        -1.534038
 O         1.747932         0.217603        -1.470077
 C         2.581610         0.269379         0.789161
 H         0.143972        -0.116941         1.401883
 H         0.039114         1.327300         0.396228
 H        -0.584290        -0.213906        -0.239713
 H         1.480541        -2.148593         0.876348
 H         1.798966        -2.297556        -1.002746
 H         3.500814        -2.202390         2.141917
 H         4.665006         0.509664         0.330790
 H         3.392703         1.502833        -1.726140
 H         3.535133        -0.400549        -2.168152
 H         2.603070         1.002855         1.742844
