19
Iteration:  3846charge 0 multiplicity 1
 C         0.006448         0.090846         0.249894
 C         1.456121        -0.089270        -0.057111
 C         1.995375        -1.527676        -0.101407
 C         3.257192        -1.150968         0.637466
 O         3.999311        -1.919190         1.467466
 C         3.728261         0.068502        -0.125441
 C         3.173915         0.345282        -1.553118
 O         1.769785         0.480621        -1.395756
 C         2.695328         0.334590         0.916171
 H        -0.026988        -0.192840         1.338980
 H        -0.371275         1.094303         0.267640
 H        -0.580730        -0.498839        -0.419244
 H         1.413679        -2.206694         0.656707
 H         2.058983        -2.031452        -1.105076
 H         4.802416        -2.243547         1.021427
 H         4.869396         0.243036         0.056616
 H         3.740360         1.295902        -1.860220
 H         3.356761        -0.573184        -2.058334
 H         2.812177         1.029483         1.725933
