19
Iteration:   810charge 0 multiplicity 1
 C         0.097463         0.156954         0.463864
 C         1.415628        -0.235764        -0.198304
 C         1.942111        -1.673239        -0.030547
 C         3.196839        -1.051940         0.546289
 O         4.058139        -1.748019         1.453736
 C         3.771349         0.082985        -0.093965
 C         3.305459         0.464168        -1.489933
 O         1.860094         0.219322        -1.517795
 C         2.534824         0.361349         0.798574
 H         0.093190         0.188450         1.555152
 H         0.066149         1.214461         0.223582
 H        -0.832190        -0.213903         0.261996
 H         1.446098        -2.380908         0.727869
 H         2.029118        -2.006971        -1.119307
 H         3.402281        -2.369496         1.819593
 H         4.800056         0.279782         0.180458
 H         3.275293         1.518700        -1.610011
 H         3.604664        -0.179706        -2.322831
 H         2.406284         0.900701         1.711205
