19
Iteration:  4561charge 0 multiplicity 1
 C         0.166205         0.283219         0.387812
 C         1.449018        -0.224961        -0.078369
 C         1.864958        -1.726660        -0.144045
 C         3.271433        -1.207746         0.515876
 O         3.926240        -1.726725         1.669507
 C         3.846933         0.203073        -0.232224
 C         3.218065         0.524403        -1.567832
 O         1.802015         0.308356        -1.395061
 C         2.680937         0.123233         0.770552
 H        -0.007806         0.083695         1.387595
 H         0.015458         1.304913         0.113632
 H        -0.761321        -0.119700        -0.071628
 H         1.253704        -2.510908         0.528787
 H         1.603366        -2.139921        -1.181763
 H         4.124188        -2.680728         1.478239
 H         4.821882         0.611708         0.244013
 H         3.504230         1.569004        -1.662953
 H         3.505518        -0.074825        -2.393941
 H         2.460448         0.705123         1.714124
