19
Iteration:  3374charge 0 multiplicity 1
 C         0.077725         0.160816         0.231978
 C         1.486784        -0.190312        -0.111205
 C         1.951942        -1.714504         0.029522
 C         3.224583        -1.126363         0.603866
 O         3.967410        -1.831500         1.482759
 C         3.794710         0.017333        -0.138346
 C         3.114317         0.598967        -1.450079
 O         1.789935         0.311240        -1.461637
 C         2.679290         0.270681         0.865387
 H         0.006771         0.092999         1.311744
 H         0.052981         1.300359        -0.036255
 H        -0.714356        -0.200647        -0.441312
 H         1.513886        -2.208991         0.900598
 H         1.990349        -2.250901        -0.824218
 H         4.807687        -2.135390         1.082836
 H         4.777313         0.206956         0.062736
 H         3.374408         1.664850        -1.434277
 H         3.481274         0.304044        -2.528201
 H         2.771841         1.091261         1.563147
