19
Iteration:  4684charge 0 multiplicity 1
 C         0.152374         0.265155         0.341416
 C         1.456565        -0.150108        -0.177470
 C         1.973749        -1.654438        -0.054663
 C         3.236727        -1.147046         0.669968
 O         4.031794        -1.872157         1.510314
 C         3.727867        -0.020621        -0.183179
 C         3.238671         0.428500        -1.519318
 O         1.719781         0.399781        -1.454236
 C         2.591148         0.222486         0.758655
 H        -0.080492        -0.243857         1.301241
 H         0.245139         1.347769         0.374510
 H        -0.797761         0.142691        -0.136622
 H         1.340062        -2.094566         0.845829
 H         2.154532        -2.404788        -0.951646
 H         4.225646        -1.401449         2.357363
 H         4.657127         0.372572         0.181572
 H         3.565559         1.442919        -1.723172
 H         3.576499        -0.143414        -2.357064
 H         2.698440         0.952775         1.542071
