19
Iteration:  3625charge 0 multiplicity 1
 C         0.169435         0.065700         0.429691
 C         1.551158        -0.149329        -0.121216
 C         2.050215        -1.627827        -0.216471
 C         3.203583        -1.123269         0.630527
 O         3.874963        -1.784362         1.634307
 C         3.803865         0.047786        -0.187212
 C         3.215004         0.405977        -1.589319
 O         1.642022         0.502652        -1.369198
 C         2.689504         0.313254         0.793407
 H        -0.043875        -0.760511         1.071368
 H        -0.090651         1.060972         0.725911
 H        -0.455552        -0.238625        -0.376812
 H         1.277936        -2.323659         0.317789
 H         2.284067        -2.126444        -1.257064
 H         4.096404        -2.678657         1.333809
 H         4.847069         0.237061         0.106096
 H         3.667597         1.355990        -1.963887
 H         3.391476        -0.268305        -2.440711
 H         2.691709         0.824975         1.743509
