19
Iteration:  4121
 C         0.031287         0.337553         0.318066
 C         1.482858        -0.195795        -0.091029
 C         1.997898        -1.743880        -0.099960
 C         3.248949        -1.186298         0.635545
 O         4.012109        -1.840733         1.560476
 C         3.743061         0.058855        -0.171358
 C         3.173554         0.457245        -1.579851
 O         1.765505         0.410184        -1.423514
 C         2.650409         0.223580         0.872886
 H        -0.087485         0.211821         1.473580
 H        -0.071862         1.386427        -0.141395
 H        -0.832255        -0.241916        -0.175942
 H         1.354065        -2.330474         0.594263
 H         2.182192        -2.163359        -1.014915
 H         4.897360        -2.048640         1.191276
 H         4.831635         0.398442         0.032290
 H         3.406149         1.435127        -1.825506
 H         3.442250        -0.282055        -2.303701
 H         2.634299         0.853985         1.737652
