19
Iteration:  3760
 C        -0.069808         0.188479         0.252615
 C         1.426180        -0.090002        -0.055695
 C         1.979515        -1.600247        -0.023876
 C         3.262535        -1.118241         0.601613
 O         4.087341        -1.955941         1.390754
 C         3.718007         0.088861        -0.099880
 C         3.281447         0.323356        -1.461864
 O         1.775423         0.429018        -1.410586
 C         2.623098         0.309025         0.893670
 H        -0.440668        -0.434948         1.068232
 H        -0.113616         1.236931         0.547637
 H        -0.725103        -0.049490        -0.581070
 H         1.362935        -2.373262         0.615995
 H         2.056473        -2.153326        -1.002278
 H         5.024153        -1.795271         1.165443
 H         4.716572         0.634260         0.096955
 H         3.644102         1.291112        -1.834901
 H         3.395116        -0.465768        -2.320839
 H         2.760297         1.071826         1.652525
