19
Iteration:  4974charge 0 multiplicity 1
 C         0.097286         0.361922         0.185869
 C         1.442472        -0.164125        -0.121570
 C         1.822169        -1.662325         0.242593
 C         3.183758        -1.131985         0.747564
 O         4.169854        -1.831202         1.330182
 C         3.759068         0.002762        -0.154514
 C         3.189111         0.441886        -1.551541
 O         1.808536         0.210934        -1.518765
 C         2.650152         0.328673         0.819780
 H        -0.429582         0.024722         1.064300
 H         0.110110         1.453720         0.440966
 H        -0.652329         0.223130        -0.736691
 H         1.274304        -1.956232         1.113099
 H         1.912795        -2.474490        -0.468465
 H         3.862011        -2.516337         1.960042
 H         4.798279         0.295476         0.196090
 H         3.413736         1.568760        -1.594030
 H         3.802285         0.001919        -2.371635
 H         2.670288         0.922507         1.748669
