19
Iteration:  3845
 C         0.007146         0.090246         0.258364
 C         1.453138        -0.084645        -0.051640
 C         1.997536        -1.534084        -0.103147
 C         3.264037        -1.155408         0.636591
 O         3.991238        -1.920041         1.473091
 C         3.724048         0.065751        -0.127600
 C         3.183673         0.346730        -1.555682
 O         1.765632         0.482384        -1.401006
 C         2.697982         0.331435         0.907718
 H        -0.022218        -0.209207         1.382605
 H        -0.395670         1.112306         0.249845
 H        -0.599599        -0.504187        -0.427092
 H         1.431163        -2.199513         0.634442
 H         2.084802        -2.007676        -1.096179
 H         4.806306        -2.234417         1.048541
 H         4.849794         0.272745         0.077457
 H         3.725509         1.327730        -1.871566
 H         3.366318        -0.553839        -2.078870
 H         2.844641         1.032179         1.721332
