19
Iteration:  1102charge 0 multiplicity 1
 C         0.147019         0.207168         0.353727
 C         1.481935        -0.168502        -0.136332
 C         1.955210        -1.836136        -0.066763
 C         3.236702        -1.121793         0.548227
 O         4.026766        -1.723736         1.608111
 C         3.758900         0.012083        -0.205096
 C         3.179095         0.607560        -1.497849
 O         1.760454         0.283706        -1.499437
 C         2.627770         0.265564         0.778783
 H        -0.085789         0.184282         1.488233
 H        -0.003610         1.292843         0.196211
 H        -0.645569        -0.455493        -0.055477
 H         1.390115        -2.209510         0.877294
 H         1.999576        -2.507106        -1.042247
 H         3.593391        -2.537411         1.876356
 H         4.723887         0.519990         0.080829
 H         3.562777         1.694411        -1.263725
 H         3.646318         0.244692        -2.476266
 H         2.724289         0.968154         1.641447
