19
Iteration:  4986
 C         0.096430         0.418861         0.244954
 C         1.477032        -0.176401        -0.173860
 C         1.869751        -1.648853         0.214170
 C         3.192540        -1.109228         0.628185
 O         4.167484        -1.855091         1.408699
 C         3.752556         0.037583        -0.143727
 C         3.244143         0.492933        -1.484491
 O         1.776926         0.116019        -1.496028
 C         2.616399         0.289094         0.812556
 H        -0.078378        -0.108498         1.181477
 H         0.305772         1.507437         0.270768
 H        -0.756679         0.218155        -0.512825
 H         1.224641        -1.949182         1.003781
 H         1.754942        -2.385547        -0.630474
 H         3.569515        -2.479597         1.877549
 H         4.817955         0.141863         0.065798
 H         3.270425         1.633950        -1.499731
 H         3.523353         0.096063        -2.438364
 H         2.420527         1.238870         1.265942
