19
Iteration:  3426charge 0 multiplicity 1
 C         0.054418         0.072272         0.301674
 C         1.470781        -0.142221        -0.139862
 C         2.059697        -1.637462        -0.079166
 C         3.260614        -1.077711         0.539548
 O         3.974788        -1.755587         1.477684
 C         3.743367         0.131263        -0.127596
 C         3.233508         0.214142        -1.512962
 O         1.784358         0.574994        -1.297383
 C         2.581904         0.246908         0.808621
 H        -0.169509        -0.528423         1.132176
 H        -0.105543         1.081455         0.752981
 H        -0.529555        -0.004831        -0.626540
 H         1.475024        -2.086593         0.718082
 H         2.167988        -2.318049        -0.996513
 H         4.300946        -2.611714         1.143697
 H         4.667739         0.392647         0.125768
 H         3.787599         1.027168        -2.050563
 H         3.073100        -0.688116        -1.982506
 H         2.472824         0.704893         1.783689
