19
Iteration:   850charge 0 multiplicity 1
 C        -0.084113         0.125770         0.055648
 C         1.418733        -0.160837        -0.034690
 C         1.972154        -1.597124         0.080448
 C         3.324200        -1.086148         0.655719
 O         4.191096        -1.888321         1.436456
 C         3.808511         0.064480        -0.118433
 C         3.111142         0.303672        -1.601082
 O         1.754213         0.491512        -1.373484
 C         2.654539         0.353792         0.875057
 H        -0.455454        -0.410848         1.021744
 H        -0.103136         1.229205         0.378180
 H        -0.531890        -0.316702        -0.942935
 H         1.536206        -2.083193         0.938523
 H         1.967155        -2.240768        -0.758712
 H         3.754186        -2.374125         2.169573
 H         4.857923         0.373494         0.113515
 H         3.548119         1.335107        -1.904682
 H         3.363590        -0.501581        -2.360111
 H         2.621637         1.049456         1.748942
