19
Iteration:  4773
 C        -0.053175         0.222685         0.089133
 C         1.420021        -0.084847        -0.032609
 C         1.880010        -1.535009         0.135895
 C         3.211778        -1.065617         0.720984
 O         4.211680        -1.885304         1.273013
 C         3.765658         0.049780        -0.153764
 C         3.161216         0.123114        -1.579435
 O         1.890993         0.500229        -1.361101
 C         2.642630         0.336729         0.971159
 H        -0.221295        -0.238079         1.152331
 H        -0.222876         1.322049         0.108691
 H        -0.656960        -0.224509        -0.665373
 H         1.257029        -2.208927         0.815773
 H         1.881396        -2.206098        -0.840640
 H         3.753192        -2.617774         1.752579
 H         4.813461         0.387648         0.111886
 H         3.630665         0.853948        -2.242822
 H         3.306210        -0.855991        -1.966216
 H         2.629087         1.146367         1.731358
