19
Iteration:    64
 C         0.081183         0.196283         0.286510
 C         1.500171        -0.160145        -0.187876
 C         2.028488        -1.597430        -0.041782
 C         3.210796        -1.147264         0.630957
 O         3.982072        -1.737092         1.604222
 C         3.776401         0.040676        -0.143146
 C         3.192989         0.437553        -1.546846
 O         1.739127         0.337645        -1.467049
 C         2.639391         0.202831         0.870891
 H        -0.174404        -0.279494         1.234393
 H        -0.043946         1.219254         0.317407
 H        -0.761719        -0.078787        -0.422632
 H         1.366390        -2.296977         0.547360
 H         2.063115        -2.310852        -0.957176
 H         4.701798        -2.258908         1.213690
 H         4.763503         0.358716         0.109860
 H         3.329999         1.518297        -1.596611
 H         3.496831        -0.127953        -2.452675
 H         2.701936         0.729216         1.756422
