19
Iteration:  2607
 C         0.038109         0.369752         0.295733
 C         1.417383        -0.165256        -0.072259
 C         1.966389        -1.716772         0.094606
 C         3.266281        -1.169076         0.507641
 O         4.118002        -1.728171         1.473131
 C         3.772247         0.065368        -0.166128
 C         3.223730         0.525718        -1.501565
 O         1.780252         0.172322        -1.430600
 C         2.601643         0.211797         0.731050
 H        -0.124755         0.130959         1.330061
 H        -0.256854         1.375142         0.095485
 H        -0.744467        -0.099464        -0.430590
 H         1.493947        -2.380367         0.970292
 H         1.925416        -2.399767        -0.762637
 H         3.783250        -2.583263         1.814667
 H         4.541668         0.603239         0.450431
 H         3.514123         1.617861        -1.588322
 H         3.652918         0.066971        -2.465294
 H         2.559401         0.848015         1.595521
