19
Iteration:  2735charge 0 multiplicity 1
 C        -0.046342         0.155931         0.380955
 C         1.475967        -0.132606        -0.131079
 C         2.004831        -1.688931        -0.010370
 C         3.243772        -1.059249         0.611600
 O         4.071358        -1.802194         1.455668
 C         3.797559         0.088089        -0.185878
 C         3.226198         0.330553        -1.587375
 O         1.801924         0.396345        -1.434636
 C         2.629035         0.301452         0.859065
 H        -0.340205        -0.084413         1.389599
 H        -0.204104         1.226679         0.320347
 H        -0.775203        -0.442697        -0.177911
 H         1.438609        -2.272666         0.652084
 H         2.184788        -2.079546        -1.002837
 H         3.571045        -2.296414         2.118224
 H         4.728784         0.505950        -0.003860
 H         3.595074         1.317014        -1.963396
 H         3.514135        -0.555416        -2.235417
 H         2.489052         0.984711         1.683962
