19
Iteration:  2202charge 0 multiplicity 1
 C         0.081640         0.147782         0.341926
 C         1.490983        -0.154497        -0.151792
 C         1.978613        -1.687838        -0.037191
 C         3.197045        -1.112501         0.667238
 O         3.993596        -1.822044         1.539201
 C         3.743022         0.110883        -0.185484
 C         3.211234         0.423201        -1.555856
 O         1.773938         0.433531        -1.426922
 C         2.635650         0.273724         0.863474
 H        -0.178676        -0.510088         1.200844
 H         0.018493         1.231588         0.555748
 H        -0.468592        -0.366192        -0.539120
 H         1.359457        -2.227502         0.724813
 H         2.159436        -2.116294        -1.045511
 H         4.405091        -2.570077         1.049402
 H         4.859566         0.407151        -0.065915
 H         3.595730         1.402223        -2.023333
 H         3.384681        -0.434582        -2.216041
 H         2.659942         1.146099         1.627206
