19
Iteration:  1443charge 0 multiplicity 1
 C         0.055368         0.123338         0.323537
 C         1.491671        -0.145216        -0.104860
 C         1.936689        -1.702899         0.011723
 C         3.195381        -1.100910         0.618154
 O         4.020131        -1.825051         1.522475
 C         3.795288         0.055144        -0.206078
 C         3.249737         0.319644        -1.589682
 O         1.782720         0.450251        -1.431051
 C         2.648059         0.361206         0.772765
 H         0.023897        -0.247130         1.429966
 H        -0.169431         1.239332         0.388044
 H        -0.675674        -0.386088        -0.324215
 H         1.379346        -2.372989         0.598791
 H         2.057199        -2.098973        -0.977107
 H         3.650359        -1.633299         2.423915
 H         4.824386         0.391588         0.010211
 H         3.669972         1.365189        -1.818105
 H         3.457006        -0.353157        -2.456001
 H         2.612256         0.917944         1.714901
