19
Iteration:  4841charge 0 multiplicity 1
 C         0.120954         0.338851         0.321289
 C         1.508836        -0.168115        -0.140518
 C         1.895662        -1.699158         0.089474
 C         3.266065        -1.103718         0.615968
 O         4.040780        -1.883738         1.459625
 C         3.796577         0.059801        -0.131924
 C         3.146323         0.474810        -1.498270
 O         1.758372         0.219711        -1.515279
 C         2.657143         0.321652         0.765554
 H         0.047375         0.077921         1.363325
 H         0.206363         1.452353         0.278584
 H        -0.676211         0.040943        -0.386705
 H         1.365946        -2.284547         0.882981
 H         1.744522        -2.395612        -0.880259
 H         3.528062        -2.248572         2.200100
 H         4.799494         0.274790         0.097181
 H         3.346612         1.576418        -1.597418
 H         3.534896        -0.052788        -2.305966
 H         2.760199         1.233066         1.337489
