19
Iteration:   547
 C        -0.036139         0.157313         0.154986
 C         1.462813        -0.046680        -0.125891
 C         1.949947        -1.633257         0.017871
 C         3.189884        -1.120790         0.692761
 O         4.235153        -1.790934         1.435249
 C         3.724661         0.149152        -0.138493
 C         3.221781         0.261359        -1.580821
 O         1.842570         0.397699        -1.379484
 C         2.543116         0.267819         0.944527
 H        -0.254860        -0.511948         1.022953
 H        -0.123785         1.192542         0.620847
 H        -0.621619         0.007077        -0.720064
 H         1.218242        -2.032554         0.750674
 H         1.935000        -2.341244        -0.877532
 H         3.912765        -2.699303         1.486776
 H         4.652757         0.621424         0.169841
 H         3.650295         1.091865        -2.225740
 H         3.405429        -0.599494        -2.163385
 H         2.458998         0.901849         1.831187
