19
Iteration:  3985charge 0 multiplicity 1
 C         0.101981         0.104415         0.353972
 C         1.485504        -0.111223        -0.122774
 C         2.005304        -1.694583        -0.161293
 C         3.125812        -1.111235         0.672677
 O         3.961244        -1.785643         1.522392
 C         3.777330         0.004261        -0.162766
 C         3.190037         0.350832        -1.551494
 O         1.788650         0.539704        -1.353604
 C         2.659999         0.263397         0.825838
 H         0.079705         0.081528         1.515106
 H        -0.200859         1.173924         0.240455
 H        -0.607237        -0.528721        -0.218336
 H         1.395574        -2.299659         0.458043
 H         2.450745        -2.069411        -1.103433
 H         4.541140        -2.357816         0.999899
 H         4.842045         0.369612         0.046252
 H         3.475420         1.273040        -1.934249
 H         3.245278        -0.562946        -2.209655
 H         2.760640         0.941963         1.627485
