19
Iteration:  1498charge 0 multiplicity 1
 C        -0.018225         0.197864         0.090397
 C         1.440963        -0.122021        -0.029332
 C         1.990260        -1.607199         0.102274
 C         3.233350        -1.077550         0.692412
 O         4.181430        -1.824351         1.335542
 C         3.769125         0.116263        -0.137324
 C         3.173211         0.198388        -1.565770
 O         1.810420         0.396414        -1.306867
 C         2.592301         0.333273         0.881987
 H        -0.638354         0.078499         0.998938
 H        -0.159709         1.268391        -0.144162
 H        -0.636652        -0.364743        -0.610923
 H         1.393936        -2.047672         0.840764
 H         1.981526        -2.184050        -0.781840
 H         3.759880        -2.588860         1.775272
 H         4.739892         0.410603         0.183530
 H         3.568807         1.134662        -2.077535
 H         3.240624        -0.679602        -2.268456
 H         2.857785         1.104930         1.579393
