19
Iteration:   129charge 0 multiplicity 1
 C         0.007869         0.094732         0.105983
 C         1.458344        -0.039729        -0.078779
 C         1.923386        -1.590564         0.043645
 C         3.207816        -1.075418         0.697572
 O         4.144429        -1.944228         1.462418
 C         3.735023         0.182138        -0.030145
 C         3.169251         0.239049        -1.523360
 O         1.762864         0.458742        -1.422309
 C         2.671776         0.363882         0.904630
 H        -0.181991        -0.302756         1.102428
 H        -0.369508         1.015426        -0.223531
 H        -0.261601        -0.671028        -0.722988
 H         1.186121        -2.206771         0.564707
 H         2.044002        -2.059941        -0.964006
 H         4.801563        -2.357216         0.837760
 H         4.735874         0.621337         0.037076
 H         3.496865         1.107344        -2.072815
 H         3.448179        -0.745463        -1.990352
 H         2.640020         1.035167         1.733487
