19
Iteration:  4372
 C         0.094854         0.260942         0.368116
 C         1.508430        -0.147327        -0.087724
 C         2.058764        -1.665686        -0.078504
 C         3.195371        -1.129641         0.741507
 O         3.951246        -1.921313         1.550506
 C         3.753714         0.013294        -0.184974
 C         3.202664         0.466260        -1.580559
 O         1.694319         0.356141        -1.523047
 C         2.674765         0.310605         0.826402
 H        -0.217711        -0.307956         1.243649
 H         0.174315         1.311320         0.448121
 H        -0.570780         0.122322        -0.460140
 H         1.364520        -2.414688         0.498929
 H         2.164799        -2.261665        -1.036226
 H         4.829358        -1.601919         1.774220
 H         4.771613         0.200726        -0.111143
 H         3.356161         1.628151        -1.782868
 H         3.528728        -0.201405        -2.419076
 H         2.538299         1.008329         1.720830
