19
Iteration:   466
 C         0.109437         0.182527         0.283900
 C         1.437369        -0.197017        -0.161465
 C         2.034677        -1.666571         0.017841
 C         3.200668        -1.028256         0.584383
 O         3.951946        -1.871074         1.488671
 C         3.701486         0.143386        -0.118264
 C         3.227817         0.428144        -1.519433
 O         1.839805         0.297955        -1.427041
 C         2.604682         0.274925         0.817180
 H         0.057411         0.006682         1.319801
 H        -0.126496         1.154795         0.009558
 H        -0.650741        -0.477748        -0.181100
 H         1.383427        -2.216914         0.864433
 H         2.066229        -2.280246        -0.921666
 H         4.853442        -1.523303         1.482680
 H         4.619067         0.552508         0.224218
 H         3.428866         1.527597        -1.624299
 H         3.645220        -0.245372        -2.366763
 H         2.397072         0.769489         1.720058
