19
Iteration:  2076charge 0 multiplicity 1
 C        -0.067545         0.227827         0.055275
 C         1.405314        -0.100869        -0.022108
 C         1.865249        -1.582404         0.078158
 C         3.259837        -1.097308         0.609743
 O         4.231561        -1.850415         1.355698
 C         3.691379         0.104809        -0.103254
 C         3.206099         0.242605        -1.501774
 O         1.763968         0.379265        -1.328163
 C         2.715799         0.309017         0.976225
 H        -0.475777        -0.033356         1.011847
 H        -0.085808         1.295035        -0.129222
 H        -0.481117        -0.260205        -0.877864
 H         1.395347        -2.128802         0.848161
 H         1.724488        -2.200145        -0.786510
 H         4.732239        -2.496130         0.819430
 H         4.706934         0.520169         0.226091
 H         3.539073         1.049121        -2.182926
 H         3.450007        -0.635088        -2.109598
 H         2.793367         0.937007         2.007021
