19
Iteration:   635
 C         0.038400         0.165980         0.221944
 C         1.489002        -0.222921        -0.166989
 C         1.848709        -1.725882         0.034930
 C         3.195285        -1.152567         0.615327
 O         4.100250        -1.747976         1.520729
 C         3.807982         0.019347        -0.232346
 C         3.263028         0.673922        -1.476048
 O         1.816201         0.299920        -1.395113
 C         2.617313         0.143407         0.769826
 H         0.105821         0.311821         1.334704
 H        -0.257087         1.219896        -0.027700
 H        -0.802996        -0.344836        -0.065472
 H         1.480437        -2.415441         0.858871
 H         1.760660        -2.316083        -0.969629
 H         3.770241        -1.776075         2.419212
 H         4.739207         0.397014         0.149204
 H         3.454299         1.821327        -1.421159
 H         3.503934         0.207453        -2.540383
 H         2.611858         0.987646         1.412041
