19
Iteration:  2297
 C        -0.002705         0.283292         0.357203
 C         1.450392        -0.108003        -0.107534
 C         1.951166        -1.671576        -0.000535
 C         3.302405        -1.132055         0.555906
 O         4.060554        -1.824060         1.565304
 C         3.739227         0.078293        -0.159566
 C         3.188878         0.399256        -1.540528
 O         1.752581         0.333973        -1.501969
 C         2.628670         0.197054         0.828290
 H        -0.155204        -0.040637         1.406607
 H        -0.130104         1.383710         0.277890
 H        -0.640318        -0.241007        -0.244091
 H         1.227570        -2.207718         0.670260
 H         1.984281        -2.007705        -1.049650
 H         4.969844        -1.843253         1.222259
 H         4.863318         0.447300         0.076881
 H         3.657880         1.352396        -1.882912
 H         3.671828        -0.381671        -2.242487
 H         2.577329         0.570954         1.918428
