19
Iteration:  2421
 C        -0.036640         0.227031         0.169547
 C         1.405190        -0.141153        -0.020063
 C         1.895756        -1.565624         0.075813
 C         3.328017        -1.130006         0.626373
 O         4.285176        -1.983696         1.271766
 C         3.720748         0.156702        -0.001058
 C         3.211631         0.333595        -1.489059
 O         1.747422         0.318609        -1.474068
 C         2.562533         0.394408         0.892898
 H        -0.231116         0.160817         1.189295
 H        -0.111054         1.184630        -0.238573
 H        -0.666963        -0.322159        -0.575023
 H         1.192355        -2.031898         0.849943
 H         1.895324        -2.289608        -0.697776
 H         4.062279        -1.969433         2.222853
 H         4.694287         0.458468         0.165933
 H         3.561569         1.310409        -2.021817
 H         3.675048        -0.477576        -2.118108
 H         2.506332         1.061464         1.765385
