19
Iteration:  3788
 C         0.193644         0.185608         0.447529
 C         1.511166        -0.153341        -0.095313
 C         1.961533        -1.727991        -0.161097
 C         3.190547        -1.137944         0.612589
 O         3.908016        -1.851375         1.556254
 C         3.795029         0.078518        -0.172708
 C         3.229408         0.474961        -1.535053
 O         1.743793         0.476624        -1.460535
 C         2.609064         0.156700         0.809454
 H        -0.000838        -0.434622         1.369471
 H         0.002073         1.309577         0.444010
 H        -0.559641        -0.301814        -0.242260
 H         1.428998        -2.299267         0.523541
 H         2.082237        -2.269414        -1.092193
 H         4.834091        -1.541239         1.512524
 H         4.671222         0.558813         0.034724
 H         3.573412         1.482042        -1.893396
 H         3.404380        -0.047087        -2.391727
 H         2.382466         0.767377         1.706134
