19
Iteration:  2043
 C         0.077348         0.295555         0.287999
 C         1.408455        -0.182905        -0.118913
 C         1.952619        -1.747111         0.032432
 C         3.227579        -1.115366         0.601390
 O         4.084994        -1.821493         1.532680
 C         3.727433         0.049965        -0.187053
 C         3.231663         0.409162        -1.547993
 O         1.741740         0.331242        -1.408000
 C         2.623534         0.283716         0.774021
 H        -0.138338         0.061440         1.309833
 H         0.178602         1.365287         0.360454
 H        -0.843959         0.042571        -0.328381
 H         1.453833        -2.236045         0.830428
 H         1.971928        -2.335259        -0.838562
 H         4.904195        -2.037324         1.027342
 H         4.650251         0.536829         0.270950
 H         3.560840         1.477219        -1.739507
 H         3.578989        -0.289339        -2.280946
 H         2.606259         1.084074         1.656403
