19
Iteration:  4164
 C        -0.000979        -0.016667         0.233019
 C         1.477128        -0.040434        -0.031812
 C         1.953186        -1.606766         0.044645
 C         3.193354        -1.046107         0.588409
 O         3.975307        -1.831510         1.440824
 C         3.775898         0.112159        -0.206494
 C         3.238181         0.163054        -1.581753
 O         1.875078         0.626129        -1.303527
 C         2.704378         0.345911         0.870794
 H        -0.302903        -0.649006         1.142123
 H        -0.448404         0.991975         0.190437
 H        -0.649554        -0.450322        -0.553205
 H         1.403664        -2.157992         0.868335
 H         1.952590        -2.296979        -0.778925
 H         4.101502        -2.612204         0.852968
 H         4.900873         0.172807         0.062979
 H         3.666470         0.941689        -2.143191
 H         3.172174        -0.763926        -2.202001
 H         2.648357         0.947100         1.735388
