19
Iteration:  1758
 C        -0.057272         0.204582         0.190772
 C         1.457239        -0.178709        -0.118702
 C         1.963300        -1.623395         0.139536
 C         3.291508        -1.065538         0.650041
 O         4.124625        -1.894231         1.376332
 C         3.732589         0.108279        -0.166024
 C         3.236730         0.377812        -1.545732
 O         1.763404         0.318585        -1.374399
 C         2.677725         0.399808         0.831975
 H        -0.323332        -0.305536         1.078809
 H        -0.150948         1.215284         0.002635
 H        -0.649889        -0.203919        -0.576580
 H         1.359475        -2.045688         0.948567
 H         1.849919        -2.358619        -0.655746
 H         3.596178        -2.383015         2.030835
 H         4.812328         0.402728         0.030555
 H         3.548315         1.411005        -1.913706
 H         3.610619        -0.361598        -2.242762
 H         2.663190         0.915736         1.845765
