19
Iteration:   669
 C         0.088472         0.273689         0.240786
 C         1.418812        -0.119586        -0.153591
 C         1.984774        -1.690608        -0.060162
 C         3.290880        -1.116949         0.627889
 O         4.111911        -1.811171         1.485014
 C         3.760762         0.149077        -0.093024
 C         3.194333         0.472241        -1.492604
 O         1.734290         0.214708        -1.465823
 C         2.581093         0.219194         0.860777
 H        -0.101143        -0.279793         1.204525
 H         0.131418         1.364548         0.434329
 H        -0.689956         0.025871        -0.433920
 H         1.557141        -2.388416         0.691537
 H         1.998763        -2.162785        -1.091934
 H         3.544003        -2.222828         2.151340
 H         4.788779         0.494854         0.228650
 H         3.464797         1.535401        -1.819284
 H         3.732696        -0.225358        -2.203151
 H         2.347074         0.901670         1.729520
