19
Iteration:  1091charge 0 multiplicity 1
 C         0.034461         0.154658         0.357628
 C         1.460965        -0.221813        -0.156956
 C         1.963662        -1.717101         0.014274
 C         3.205415        -1.088429         0.633938
 O         4.027486        -1.701983         1.550150
 C         3.901908        -0.034415        -0.239101
 C         3.204055         0.561246        -1.513888
 O         1.791021         0.331365        -1.450319
 C         2.609250         0.254274         0.728598
 H         0.098914        -0.267255         1.396440
 H         0.097255         1.245132         0.274993
 H        -0.772531        -0.090192        -0.320787
 H         1.301764        -2.233673         0.809331
 H         1.925648        -2.432718        -0.902393
 H         3.592185        -2.560971         1.725265
 H         4.861464         0.400857         0.173803
 H         3.287276         1.707583        -1.460858
 H         3.543562         0.278227        -2.556557
 H         2.555632         0.731540         1.730441
