19
Iteration:  3279charge 0 multiplicity 1
 C        -0.026497         0.036316         0.193971
 C         1.461198        -0.058589        -0.098094
 C         1.998928        -1.547491        -0.038640
 C         3.278685        -1.085976         0.563751
 O         4.058265        -1.910353         1.571058
 C         3.817392         0.117433        -0.128768
 C         3.160218         0.310059        -1.550287
 O         1.742844         0.567058        -1.370735
 C         2.659189         0.200287         0.881877
 H        -0.261987        -0.671690         1.033001
 H        -0.418360         1.034975         0.410905
 H        -0.564556        -0.219038        -0.711837
 H         1.371116        -1.858357         0.892706
 H         1.938134        -2.286708        -0.955105
 H         4.807289        -2.247122         1.024580
 H         4.651725         0.600103         0.232557
 H         3.649467         1.066483        -2.235849
 H         3.213344        -0.494180        -2.246024
 H         2.745812         0.662264         1.837720
