19
Iteration:  3490
 C         0.063746         0.148946         0.240061
 C         1.496022        -0.195276        -0.072448
 C         1.892848        -1.684833         0.076129
 C         3.205749        -1.125112         0.544284
 O         3.953564        -1.875997         1.468419
 C         3.779330         0.114712        -0.171349
 C         3.227471         0.611739        -1.520031
 O         1.790328         0.265098        -1.360091
 C         2.680735         0.275633         0.819100
 H        -0.114440         0.005616         1.275492
 H        -0.069568         1.154400        -0.046764
 H        -0.669545        -0.288230        -0.421029
 H         1.440533        -2.076728         0.952686
 H         1.962114        -2.309474        -0.924578
 H         4.884811        -1.966043         1.175441
 H         4.764972         0.273554         0.051848
 H         3.451032         1.742058        -1.604619
 H         3.659218         0.223450        -2.427444
 H         2.769382         1.005253         1.616377
