19
Iteration:   237
 C         0.009699         0.100071         0.169960
 C         1.464230        -0.173438        -0.064762
 C         1.968552        -1.622024         0.079811
 C         3.271512        -1.072029         0.640027
 O         3.985592        -1.919526         1.377070
 C         3.783829         0.187058        -0.156854
 C         3.252516         0.288486        -1.546831
 O         1.827346         0.421419        -1.374906
 C         2.549352         0.345773         0.899538
 H        -0.405120        -0.250169         1.171429
 H        -0.179311         1.200680         0.239964
 H        -0.770220        -0.242787        -0.700642
 H         1.306541        -2.205387         0.762698
 H         2.021427        -2.179595        -0.852995
 H         4.900154        -1.640312         1.460493
 H         4.659321         0.735298         0.251497
 H         3.742779         1.243790        -1.973566
 H         3.612432        -0.635125        -2.069869
 H         2.645164         1.042305         1.790701
