19
Iteration:  2389
 C        -0.037672         0.157898         0.136178
 C         1.458387        -0.180743        -0.033363
 C         1.990587        -1.684285         0.040372
 C         3.258419        -1.078283         0.599359
 O         4.145821        -1.758718         1.360388
 C         3.768811         0.048131        -0.152947
 C         3.163077         0.205893        -1.549077
 O         1.792972         0.548216        -1.286258
 C         2.630248         0.347432         0.919600
 H        -0.448409        -0.067657         1.120814
 H        -0.061686         1.221518         0.085845
 H        -0.647073        -0.462668        -0.632656
 H         1.281880        -2.049600         0.778836
 H         2.168838        -2.257800        -0.839830
 H         3.766405        -2.603702         1.671062
 H         4.757292         0.222410         0.101362
 H         3.587354         1.071736        -2.234207
 H         3.246441        -0.732554        -2.176623
 H         2.692695         0.996024         1.786835
