19
Iteration:  4157charge 0 multiplicity 1
 C        -0.015843         0.001077         0.228352
 C         1.486361        -0.038566        -0.055410
 C         1.940077        -1.579745         0.009699
 C         3.196547        -1.092705         0.637181
 O         4.001240        -1.823850         1.429887
 C         3.786841         0.047884        -0.157618
 C         3.189196         0.212365        -1.566451
 O         1.861956         0.603541        -1.326415
 C         2.692204         0.324104         0.869977
 H        -0.167930        -0.417563         1.211401
 H        -0.466281         1.059975         0.357622
 H        -0.543409        -0.673488        -0.538301
 H         1.260132        -2.078337         0.682295
 H         1.843323        -2.259106        -0.860112
 H         4.398218        -2.652666         1.086406
 H         4.771630         0.392671         0.048335
 H         3.751035         0.920114        -2.242799
 H         3.351280        -0.674232        -2.175121
 H         2.827037         1.180449         1.559148
