19
Iteration:  2802charge 0 multiplicity 1
 C         0.005470         0.313681         0.094565
 C         1.438377        -0.131476        -0.026354
 C         1.872332        -1.662945         0.116475
 C         3.274150        -1.172429         0.608399
 O         4.252844        -1.787834         1.338734
 C         3.777851         0.017704        -0.144585
 C         3.166527         0.451704        -1.447165
 O         1.768684         0.271321        -1.404088
 C         2.606883         0.243411         0.849500
 H        -0.476321        -0.098339         0.999656
 H        -0.018893         1.368730         0.275376
 H        -0.662362        -0.293216        -0.675712
 H         1.228032        -2.047041         0.907912
 H         1.893373        -2.325261        -0.786995
 H         3.863654        -2.181646         2.151589
 H         4.823374         0.409299         0.079016
 H         3.315552         1.553154        -1.332000
 H         3.564305        -0.111040        -2.330366
 H         2.575374         1.017669         1.506116
