19
Iteration:   688charge 0 multiplicity 1
 C        -0.035140         0.179427         0.259731
 C         1.442174        -0.202835        -0.087721
 C         2.009891        -1.616935        -0.019332
 C         3.254264        -1.037015         0.664777
 O         4.124515        -1.841634         1.373057
 C         3.692673         0.199771        -0.090705
 C         3.255984         0.260251        -1.565738
 O         1.852445         0.353804        -1.385231
 C         2.551661         0.307708         0.859665
 H        -0.695948        -0.232673         1.030260
 H        -0.095763         1.210490         0.647021
 H        -0.604366         0.187654        -0.626956
 H         1.428276        -2.305523         0.745949
 H         2.131456        -2.193792        -1.034239
 H         3.638983        -2.481030         1.900804
 H         4.586331         0.697280         0.257745
 H         3.786316         1.158511        -1.983422
 H         3.701872        -0.576990        -2.309297
 H         2.579885         1.006988         1.681945
