19
Iteration:  4862charge 0 multiplicity 1
 C         0.106450         0.255034         0.440985
 C         1.549385        -0.146896        -0.061245
 C         1.886740        -1.613801        -0.026409
 C         3.204966        -1.106771         0.542321
 O         3.927932        -1.779409         1.586605
 C         3.797131         0.007941        -0.247052
 C         3.245533         0.509133        -1.645139
 O         1.813642         0.217592        -1.480640
 C         2.714040         0.245597         0.773771
 H         0.216546         0.071270         1.540978
 H        -0.161310         1.352004         0.451429
 H        -0.660804        -0.321654        -0.098444
 H         1.273530        -2.155918         0.714276
 H         1.947948        -2.313568        -0.910138
 H         3.358550        -2.371511         2.131669
 H         4.715393         0.416612        -0.004573
 H         3.331192         1.613406        -1.767319
 H         3.582180        -0.019287        -2.487281
 H         2.625223         0.660635         1.764848
