19
Iteration:  4540
 C         0.196556         0.239813         0.400025
 C         1.501987        -0.195018        -0.158731
 C         2.008400        -1.726536        -0.050905
 C         3.214134        -1.171800         0.570742
 O         3.863229        -1.769742         1.633909
 C         3.760806         0.042596        -0.206061
 C         3.166324         0.572498        -1.554152
 O         1.754181         0.352742        -1.466935
 C         2.685839         0.220075         0.757397
 H         0.068015        -0.219475         1.324107
 H         0.285265         1.310340         0.381050
 H        -0.700640         0.083192        -0.164750
 H         1.344361        -2.316507         0.741254
 H         2.221438        -2.473065        -0.902732
 H         4.098926        -2.685389         1.439753
 H         4.828673         0.321006         0.099350
 H         3.390683         1.719001        -1.560009
 H         3.588272         0.062474        -2.454307
 H         2.719266         0.840835         1.688755
