19
Iteration:  2752
 C         0.170779         0.184949         0.333009
 C         1.467176        -0.192360        -0.083730
 C         1.938677        -1.583567        -0.044553
 C         3.256252        -1.049044         0.547369
 O         4.080839        -1.839094         1.457862
 C         3.691302         0.181609        -0.078199
 C         3.237471         0.396945        -1.547226
 O         1.751030         0.237523        -1.470132
 C         2.588728         0.272340         0.779399
 H         0.222581        -0.120804         1.426805
 H        -0.025313         1.313363         0.361066
 H        -0.636370        -0.180582        -0.293444
 H         1.454816        -2.174950         0.847436
 H         1.838156        -2.304772        -0.945721
 H         3.472167        -2.201184         2.126298
 H         4.721720         0.488607         0.344179
 H         3.391259         1.462792        -1.757496
 H         3.531276        -0.418144        -2.190368
 H         2.658287         0.976134         1.758245
