19
Iteration:  2948charge 0 multiplicity 1
 C         0.020138         0.244147         0.162444
 C         1.448099        -0.144106        -0.075988
 C         1.951321        -1.667088         0.041626
 C         3.232076        -1.124262         0.654687
 O         4.144955        -1.922174         1.318249
 C         3.754402         0.098027        -0.107579
 C         3.183452         0.454263        -1.434975
 O         1.760905         0.300942        -1.406275
 C         2.628898         0.321084         0.851196
 H        -0.395228        -0.370501         1.020601
 H        -0.046100         1.353641         0.368500
 H        -0.601231        -0.222401        -0.620769
 H         1.301030        -2.109113         0.823257
 H         2.037261        -2.246732        -0.812740
 H         4.319300        -1.654479         2.227866
 H         4.773029         0.327986         0.029012
 H         3.432294         1.476581        -1.753997
 H         3.618639        -0.153160        -2.260389
 H         2.587996         1.094004         1.649636
