19
Iteration:  2007
 C         0.204620         0.117469         0.471153
 C         1.545955        -0.091106        -0.091312
 C         1.923469        -1.663009        -0.062901
 C         3.144976        -1.106057         0.592437
 O         3.834985        -1.744374         1.636963
 C         3.785671         0.093714        -0.248309
 C         3.218137         0.446507        -1.605700
 O         1.760100         0.268834        -1.487922
 C         2.703542         0.292736         0.775418
 H         0.348477        -0.424299         1.446682
 H         0.040174         1.204363         0.639988
 H        -0.682921        -0.306231        -0.065704
 H         1.328935        -2.359163         0.582136
 H         2.007358        -2.178256        -1.085225
 H         4.613080        -2.153925         1.196301
 H         4.732799         0.495668         0.071751
 H         3.476171         1.436000        -1.949612
 H         3.584615        -0.202890        -2.486221
 H         2.841415         0.765978         1.663440
