19
Iteration:  3782charge 0 multiplicity 1
 C         0.088028         0.192991         0.412728
 C         1.465203        -0.178764        -0.124612
 C         1.972075        -1.646633        -0.161607
 C         3.198534        -1.142499         0.611553
 O         3.976507        -1.876722         1.552666
 C         3.786580         0.052711        -0.154506
 C         3.224844         0.479751        -1.549557
 O         1.789432         0.454192        -1.426097
 C         2.617293         0.200578         0.805178
 H        -0.061235        -0.302551         1.367423
 H         0.021324         1.238076         0.675001
 H        -0.678028        -0.229875        -0.213165
 H         1.328977        -2.387035         0.510455
 H         1.974693        -2.235548        -1.121285
 H         4.908617        -1.613708         1.551971
 H         4.831544         0.494392         0.140146
 H         3.383659         1.529591        -1.879334
 H         3.515779        -0.299547        -2.424739
 H         2.423894         0.816317         1.663781
