19
Iteration:  4819charge 0 multiplicity 1
 C         0.020944         0.404304         0.188726
 C         1.439613        -0.120664        -0.092051
 C         1.906902        -1.625300         0.196010
 C         3.233575        -1.096370         0.712293
 O         4.210983        -1.922626         1.308061
 C         3.678715         0.087141        -0.167878
 C         3.250127         0.350036        -1.579512
 O         1.803930         0.264744        -1.406109
 C         2.560564         0.261709         0.856312
 H        -0.402688         0.050940         1.123940
 H         0.174750         1.495005         0.106679
 H        -0.510891         0.166229        -0.740678
 H         1.260190        -2.232009         0.878081
 H         1.836976        -2.336318        -0.792411
 H         4.000054        -2.185943         2.226311
 H         4.665684         0.289854         0.107281
 H         3.618362         1.384569        -1.791418
 H         3.561127        -0.322087        -2.322607
 H         2.617024         0.828471         1.766896
