19
Iteration:  1407charge 0 multiplicity 1
 C         0.183501         0.288238         0.254002
 C         1.468350        -0.155406        -0.086692
 C         1.888122        -1.698956         0.009475
 C         3.351013        -1.149569         0.590909
 O         4.038976        -1.792603         1.617920
 C         3.741228         0.048383        -0.240720
 C         3.134845         0.498714        -1.572474
 O         1.778114         0.250164        -1.458428
 C         2.612383         0.233195         0.766587
 H        -0.152884        -0.390771         1.282668
 H         0.276491         1.433019         0.511060
 H        -0.681780        -0.094103        -0.436354
 H         1.416741        -2.375535         0.751472
 H         1.930988        -2.113131        -0.989878
 H         3.431701        -2.045322         2.356264
 H         4.691248         0.578098         0.053233
 H         3.375384         1.576514        -1.398863
 H         3.513689         0.242704        -2.674475
 H         2.715355         0.833385         1.699693
