19
Iteration:  3106charge 0 multiplicity 1
 C         0.046880         0.145127         0.266486
 C         1.484163        -0.113607        -0.091201
 C         1.975101        -1.582928        -0.102715
 C         3.258728        -1.069494         0.638979
 O         4.033917        -1.951061         1.417752
 C         3.716996         0.173110        -0.108504
 C         3.206967         0.297121        -1.574305
 O         1.813256         0.380410        -1.383123
 C         2.576145         0.305175         0.906731
 H        -0.172333        -0.411917         1.195824
 H         0.137286         1.178788         0.657730
 H        -0.748434        -0.111776        -0.442349
 H         1.397243        -2.192735         0.490404
 H         2.083893        -2.095501        -1.045943
 H         4.798464        -1.546798         1.849079
 H         4.594073         0.631379         0.144294
 H         3.518876         1.249630        -1.967770
 H         3.345921        -0.605575        -2.161780
 H         2.448359         0.925865         1.862713
