19
Iteration:   325
 C         0.017560         0.288328         0.355648
 C         1.481079        -0.216030        -0.149652
 C         2.011379        -1.700097        -0.044615
 C         3.290506        -1.130894         0.598569
 O         3.980100        -1.800304         1.578185
 C         3.745711         0.105197        -0.127304
 C         3.258536         0.461162        -1.488865
 O         1.779135         0.317486        -1.559505
 C         2.554794         0.174673         0.823696
 H        -0.106424        -0.084780         1.394796
 H        -0.031417         1.390060         0.346809
 H        -0.877145        -0.209795        -0.229925
 H         1.393947        -2.340640         0.610132
 H         2.067267        -2.267737        -0.966021
 H         4.928839        -1.766395         1.447416
 H         4.640570         0.635818         0.229417
 H         3.499671         1.559743        -1.741865
 H         3.701069        -0.167391        -2.255904
 H         2.455761         0.929822         1.619129
