19
Iteration:   298
 C        -0.033746         0.158982         0.084796
 C         1.543484        -0.147047        -0.051708
 C         1.961459        -1.661315         0.057427
 C         3.243782        -1.087263         0.600840
 O         4.059115        -1.910350         1.482169
 C         3.751172         0.133691        -0.122799
 C         3.200152         0.355308        -1.552206
 O         1.814488         0.439567        -1.331053
 C         2.590796         0.296146         0.903492
 H        -0.350621         0.086256         1.110218
 H        -0.241398         1.143406        -0.319810
 H        -0.531933        -0.581744        -0.375005
 H         1.228384        -2.256463         0.704200
 H         1.940642        -2.270176        -0.937000
 H         4.966203        -1.584305         1.422296
 H         4.798052         0.389402        -0.034662
 H         3.391843         1.251023        -2.097025
 H         3.475237        -0.473625        -2.241907
 H         2.401326         0.995469         1.688109
