19
Iteration:  2555charge 0 multiplicity 1
 C        -0.067394         0.065459         0.255631
 C         1.416660        -0.024960        -0.101984
 C         1.983138        -1.649020         0.034445
 C         3.239491        -1.062274         0.672949
 O         4.153628        -1.909910         1.342196
 C         3.739914         0.147201        -0.166788
 C         3.195837         0.191254        -1.538523
 O         1.866682         0.495500        -1.347452
 C         2.613861         0.392261         0.840543
 H        -0.313422        -0.215285         1.273306
 H        -0.459110         1.074204         0.142206
 H        -0.652578        -0.529028        -0.426678
 H         1.406968        -2.131624         0.826801
 H         2.061630        -2.293419        -0.873080
 H         3.679460        -1.947874         2.202889
 H         4.791137         0.375925         0.084325
 H         3.796111         0.903616        -2.128248
 H         3.460284        -0.674057        -2.161693
 H         2.594251         1.105905         1.550975
