19
Iteration:  4190
 C         0.028615        -0.089320         0.425354
 C         1.532791         0.031608         0.039274
 C         2.062350        -0.981922        -0.996761
 C         3.150266        -1.361888         0.000763
 O         3.814655        -2.561789         0.146722
 C         3.853032        -0.024487         0.283282
 O         3.522701         1.125297        -0.497359
 C         2.085230         1.368986        -0.378817
 C         2.558798        -0.388714         1.172300
 H        -0.330174         0.501586         1.164685
 H        -0.437149        -0.090776        -0.572708
 H        -0.234983        -1.156223         0.770432
 H         1.407600        -1.977486        -1.158275
 H         2.426539        -0.660396        -1.892345
 H         4.723589        -2.475986        -0.163223
 H         4.855225        -0.034632         0.636251
 H         1.993825         2.206419         0.356934
 H         1.660026         1.819134        -1.389140
 H         2.414988        -0.605469         2.270433
