19
Iteration:  3812
 C         0.135606        -0.111343         0.392295
 C         1.549083         0.045357        -0.047148
 C         2.043498        -1.088067        -1.054830
 C         3.236748        -1.360588        -0.072896
 O         3.816998        -2.563253         0.201928
 C         3.794668         0.035852         0.348141
 O         3.485438         1.191373        -0.451073
 C         2.016124         1.428319        -0.331432
 C         2.649416        -0.524640         1.046434
 H        -0.138507         0.820755         1.170898
 H        -0.495314         0.061856        -0.477782
 H        -0.080658        -1.024862         0.863911
 H         1.323036        -1.874344        -0.921280
 H         2.376229        -0.640941        -2.048379
 H         3.137039        -2.803234         0.910895
 H         4.868712         0.155493         0.757010
 H         1.918528         2.018452         0.523524
 H         1.742315         2.010083        -1.318597
 H         2.546604        -0.681068         2.107595
