19
Iteration:   207charge 0 multiplicity 1
 C        -0.024341         0.059388         0.357376
 C         1.511860        -0.012498         0.071574
 C         2.134163        -1.065601        -1.069674
 C         3.198490        -1.347436        -0.026914
 O         3.855308        -2.646091         0.115092
 C         3.774324         0.016689         0.457745
 O         3.573690         1.211165        -0.281391
 C         2.109202         1.303433        -0.505732
 C         2.497693        -0.504157         1.088999
 H        -0.122588         0.852371         1.249064
 H        -0.633605         0.399890        -0.537565
 H        -0.478598        -0.811440         0.806529
 H         1.336968        -1.719173        -1.262323
 H         2.542298        -0.544758        -2.057445
 H         4.524849        -2.642841        -0.538203
 H         4.787727         0.055510         0.981787
 H         1.690325         2.303256        -0.043056
 H         1.940074         1.505611        -1.592650
 H         2.267810        -0.652525         2.140681
