19
Iteration:  3148
 C        -0.034063         0.190316         0.311284
 C         1.401474        -0.080819         0.116722
 C         1.856839        -1.290103        -0.787100
 C         3.197789        -1.279613         0.010545
 O         4.171511        -2.315388        -0.094458
 C         3.745640        -0.038734         0.474713
 O         3.585199         1.119340        -0.383733
 C         2.195377         1.238313        -0.529327
 C         2.512548        -0.477626         1.181627
 H        -0.317724         0.858338         1.155670
 H        -0.404096         0.644558        -0.795062
 H        -0.560372        -0.765839         0.303901
 H         1.319229        -2.180844        -0.433240
 H         1.721824        -1.055545        -2.003294
 H         3.794594        -3.104084        -0.517963
 H         4.759219        -0.141097         0.843192
 H         1.820389         2.139516         0.090404
 H         1.908833         1.456821        -1.659947
 H         2.493576        -0.656489         2.286840
