19
Iteration:  3846
 C         0.029628        -0.183936         0.413992
 C         1.534859         0.023280        -0.018916
 C         2.139488        -1.056722        -0.977019
 C         3.226756        -1.356201         0.031358
 O         3.739958        -2.619845         0.085510
 C         3.828510         0.029775         0.336853
 O         3.546599         1.232338        -0.520865
 C         2.043682         1.437562        -0.385393
 C         2.637886        -0.412776         1.138957
 H        -0.313162         0.561938         1.284926
 H        -0.679926        -0.130427        -0.469243
 H        -0.096823        -1.155442         0.811361
 H         1.431835        -1.816380        -1.339323
 H         2.454504        -0.686209        -1.961718
 H         3.539265        -2.994317         0.964247
 H         4.818168         0.086233         0.817535
 H         1.871942         2.074725         0.415479
 H         1.754295         2.082356        -1.300873
 H         2.483275        -0.400658         2.211707
