19
Iteration:  4738
 C         0.076342        -0.074782         0.344162
 C         1.518041        -0.025368        -0.030195
 C         2.058312        -1.100184        -1.034665
 C         3.188148        -1.326685        -0.042673
 O         3.910521        -2.552832         0.171144
 C         3.760294         0.001406         0.393060
 O         3.522261         1.226778        -0.443894
 C         2.143270         1.413936        -0.305880
 C         2.539407        -0.424950         1.085013
 H        -0.158498         0.441030         1.301384
 H        -0.618982         0.438620        -0.335088
 H        -0.148156        -1.106083         0.519468
 H         1.456950        -2.067123        -1.071270
 H         2.244284        -0.807985        -2.092503
 H         3.349944        -3.213054        -0.150474
 H         4.775565        -0.009406         0.849674
 H         1.829458         1.898106         0.631701
 H         1.778762         1.849768        -1.346145
 H         2.303699        -0.567657         2.107409
