19
Iteration:  2879charge 0 multiplicity 1
 C         0.003200        -0.074824         0.229644
 C         1.533715         0.028796         0.087343
 C         2.032168        -1.094253        -0.911300
 C         3.216769        -1.302647         0.047210
 O         3.952866        -2.556489         0.119933
 C         3.816507         0.037782         0.340758
 O         3.512505         1.138599        -0.559893
 C         2.071649         1.366117        -0.315630
 C         2.599925        -0.406146         1.131950
 H        -0.301636         0.487113         1.213509
 H        -0.559368         0.234740        -0.549530
 H        -0.288979        -1.142828         0.392935
 H         1.316601        -1.965287        -0.647597
 H         2.069130        -0.906209        -1.916264
 H         3.204668        -3.085387        -0.332757
 H         4.773503         0.150795         0.880128
 H         2.030626         2.036701         0.528527
 H         1.671017         1.920508        -1.145615
 H         2.497932        -0.505956         2.248045
