19
Iteration:  3018charge 0 multiplicity 1
 C        -0.010600        -0.126782         0.295933
 C         1.498668         0.058915         0.037403
 C         2.061663        -1.056318        -0.917227
 C         3.203837        -1.295003         0.044366
 O         3.918316        -2.472210         0.018587
 C         3.820003        -0.019090         0.442758
 O         3.514643         1.057737        -0.563873
 C         2.115526         1.384324        -0.336562
 C         2.635233        -0.393466         1.205846
 H        -0.496545         0.462558         1.129284
 H        -0.594966         0.280997        -0.641701
 H        -0.352779        -1.153953         0.196826
 H         1.522794        -1.994624        -0.855737
 H         2.208630        -0.859215        -2.039291
 H         3.308710        -3.169321         0.230390
 H         4.804196         0.102929         1.003476
 H         1.815904         2.196025         0.340880
 H         1.698530         1.718796        -1.282331
 H         2.412975        -0.387480         2.324588
