19
Iteration:  2830
 C         0.090245        -0.055898         0.444459
 C         1.580404        -0.005184        -0.024000
 C         2.059412        -1.018805        -1.011116
 C         3.143312        -1.387402        -0.052274
 O         3.935242        -2.503097         0.263360
 C         3.799952        -0.002244         0.357114
 O         3.509584         1.141606        -0.500131
 C         2.052020         1.406751        -0.345397
 C         2.493646        -0.474082         1.003134
 H        -0.202811         0.552177         1.220977
 H        -0.740936         0.020075        -0.423291
 H         0.018111        -1.043414         0.877602
 H         1.329442        -1.732329        -1.208674
 H         2.517327        -0.540508        -2.014748
 H         3.826360        -3.290186        -0.212906
 H         4.856789         0.036278         0.740689
 H         1.758548         2.108507         0.552246
 H         1.729705         1.812651        -1.362826
 H         2.301774        -0.501722         2.113716
