19
Iteration:  1693charge 0 multiplicity 1
 C        -0.067112        -0.025531         0.262557
 C         1.526591         0.010849         0.011498
 C         2.119278        -1.085698        -0.952490
 C         3.231761        -1.308282        -0.048935
 O         3.790989        -2.583970         0.189098
 C         3.828261         0.045086         0.369350
 O         3.527570         1.207875        -0.371254
 C         2.103424         1.341887        -0.346010
 C         2.610616        -0.485627         1.053289
 H        -0.295476         0.583670         1.109050
 H        -0.579323         0.269668        -0.596158
 H        -0.393720        -1.114087         0.429243
 H         1.383016        -1.966149        -0.973497
 H         2.372867        -0.725988        -1.971579
 H         4.250356        -2.921597        -0.583721
 H         4.805640         0.107772         0.929890
 H         1.954831         1.972745         0.498471
 H         1.657803         1.672854        -1.352294
 H         2.647870        -0.577651         2.196473
