19
Iteration:  4012
 C         0.014471        -0.065946         0.468811
 C         1.504086        -0.005175         0.023685
 C         2.149101        -1.047974        -0.994850
 C         3.230503        -1.321715        -0.006082
 O         3.805709        -2.531471         0.194415
 C         3.821321         0.077731         0.352915
 O         3.494570         1.112806        -0.535222
 C         2.075385         1.346852        -0.357986
 C         2.589107        -0.469632         1.019999
 H        -0.203456         0.762975         1.117805
 H        -0.712889         0.040590        -0.393933
 H        -0.076809        -1.032507         0.866756
 H         1.579822        -2.058594        -1.237234
 H         2.408770        -0.645794        -1.967345
 H         3.700588        -3.200190        -0.438598
 H         4.823684         0.182897         0.919550
 H         2.057568         2.001492         0.565892
 H         1.737148         2.078166        -1.236094
 H         2.408364        -0.407743         2.133798
