19
Iteration:  3314
 C        -0.033194         0.157773         0.398254
 C         1.436655        -0.013663         0.058268
 C         1.938568        -1.202140        -0.934663
 C         3.143324        -1.301382         0.011879
 O         4.154722        -2.393282         0.051391
 C         3.749244        -0.038355         0.369402
 O         3.594330         1.137237        -0.418390
 C         2.119476         1.275735        -0.451246
 C         2.522479        -0.534010         1.078258
 H        -0.265271         0.917814         1.162638
 H        -0.617381         0.474573        -0.472785
 H        -0.537220        -0.858237         0.606015
 H         1.289149        -2.125056        -0.731903
 H         2.173738        -1.169908        -2.071794
 H         3.707236        -3.316025         0.074091
 H         4.677506         0.043450         1.027104
 H         1.974978         2.124831         0.212940
 H         1.932453         1.696418        -1.457067
 H         2.310551        -0.619972         2.115186
