19
Iteration:  4932
 C         0.060768         0.034771         0.284251
 C         1.564436        -0.030164         0.106512
 C         2.047848        -1.038226        -0.997309
 C         3.204328        -1.305216        -0.068083
 O         3.928675        -2.448651         0.163489
 C         3.832777        -0.036721         0.383873
 O         3.510241         1.193999        -0.470425
 C         2.043712         1.348235        -0.350999
 C         2.553296        -0.608722         1.100193
 H        -0.343238         0.812428         0.965814
 H        -0.403754         0.090133        -0.782816
 H        -0.590634        -0.912829         0.839880
 H         1.319618        -1.951598        -1.086592
 H         2.241655        -0.731867        -2.064719
 H         3.340138        -3.169646         0.459565
 H         4.870614        -0.145142         0.688347
 H         1.805929         2.154600         0.483814
 H         1.549912         1.758268        -1.181287
 H         2.647183        -0.996862         2.043574
