19
Iteration:  1873charge 0 multiplicity 1
 C         0.006061        -0.156855         0.364994
 C         1.491912         0.037638         0.040304
 C         2.171217        -0.979657        -1.070620
 C         3.181350        -1.304151        -0.013623
 O         3.758990        -2.677327         0.179001
 C         3.829128         0.005245         0.319990
 O         3.555322         1.221247        -0.474327
 C         2.086103         1.383621        -0.349586
 C         2.538443        -0.432365         1.076641
 H        -0.441531         0.472266         1.192414
 H        -0.686726        -0.050933        -0.513790
 H        -0.086539        -1.104543         0.772636
 H         1.594529        -1.921471        -1.316797
 H         2.629497        -0.406513        -1.955682
 H         4.458643        -2.578561         0.831637
 H         4.877206         0.130310         0.833174
 H         1.949483         1.932603         0.574146
 H         1.784520         2.049418        -1.311757
 H         2.371397        -0.676108         2.151764
