19
Iteration:  4445
 C         0.006540         0.004903         0.444176
 C         1.504346         0.018888         0.070669
 C         1.945503        -1.088135        -0.970927
 C         3.166549        -1.304439        -0.052022
 O         3.946286        -2.472891         0.042901
 C         3.777624        -0.006839         0.398993
 O         3.563503         1.063121        -0.439210
 C         2.133571         1.290995        -0.454531
 C         2.558622        -0.434978         1.072714
 H        -0.174936         0.605656         1.376763
 H        -0.728969         0.138961        -0.317225
 H        -0.168656        -0.931943         0.871934
 H         1.277318        -1.867248        -1.085226
 H         2.164834        -0.635155        -1.985135
 H         4.653292        -2.279335         0.612951
 H         4.725490        -0.133251         0.858770
 H         2.024464         2.188089         0.141391
 H         1.772064         1.540184        -1.455082
 H         2.322438        -0.643729         2.161694
