19
Iteration:  4008
 C         0.047161        -0.085250         0.436676
 C         1.505888         0.013435         0.007744
 C         2.153714        -1.104154        -0.957927
 C         3.227754        -1.296127        -0.028247
 O         3.816194        -2.526296         0.183325
 C         3.794634         0.061059         0.375714
 O         3.485059         1.100603        -0.521011
 C         2.110209         1.386956        -0.382534
 C         2.581538        -0.451053         1.016969
 H        -0.038426         0.745444         1.302504
 H        -0.719498        -0.060567        -0.311060
 H        -0.161767        -1.023955         0.999652
 H         1.541447        -1.871369        -1.144967
 H         2.384819        -0.622346        -1.997961
 H         3.584974        -3.254591        -0.483529
 H         4.736772         0.158075         0.850876
 H         1.963695         2.063280         0.584900
 H         1.693673         2.000803        -1.144582
 H         2.281665        -0.429715         2.079167
