19
Iteration:  1888charge 0 multiplicity 1
 C         0.049332        -0.129778         0.388143
 C         1.533568         0.003521        -0.086674
 C         2.058692        -1.136974        -1.058538
 C         3.188748        -1.348078        -0.030077
 O         3.756214        -2.566928         0.121853
 C         3.808253         0.062196         0.420662
 O         3.566671         1.224060        -0.345994
 C         2.110625         1.424590        -0.349217
 C         2.587601        -0.450460         1.025616
 H        -0.155053         0.658157         1.020835
 H        -0.661474        -0.040522        -0.469988
 H        -0.080957        -1.150230         0.857886
 H         1.321812        -1.863835        -1.113592
 H         2.354674        -0.879869        -2.085854
 H         4.492113        -2.556553         0.710129
 H         4.743108        -0.046173         0.825683
 H         1.744644         2.260310         0.264632
 H         1.799509         1.655986        -1.281007
 H         2.367474        -0.457123         2.092414
