19
Iteration:  3762
 C         0.030489         0.145450         0.350750
 C         1.511229         0.008417         0.022154
 C         1.996369        -1.209479        -0.882635
 C         3.203917        -1.402387         0.055023
 O         4.116757        -2.387348        -0.075012
 C         3.694123        -0.066097         0.480139
 O         3.502817         1.095446        -0.419921
 C         2.148538         1.333477        -0.476598
 C         2.452839        -0.415961         1.162714
 H        -0.065448         0.669927         1.205008
 H        -0.717918         0.598127        -0.401289
 H        -0.255439        -0.947852         0.589001
 H         1.341668        -2.102804        -0.664953
 H         2.150782        -0.884145        -1.891174
 H         3.670771        -3.236149        -0.265304
 H         4.664490        -0.058152         0.988395
 H         1.828075         2.298061         0.060055
 H         2.016696         1.403365        -1.483813
 H         2.149390        -0.592712         2.197720
