19
Iteration:  2646charge 0 multiplicity 1
 C         0.157717        -0.361347         0.455071
 C         1.546725         0.062521         0.027323
 C         2.030607        -1.045420        -1.082677
 C         3.189336        -1.289093         0.018852
 O         3.672114        -2.596175         0.158500
 C         3.837311         0.067110         0.354681
 O         3.586644         1.243520        -0.493549
 C         2.121228         1.403160        -0.424465
 C         2.586341        -0.346581         1.040780
 H        -0.285853         0.232260         1.374232
 H        -0.571856        -0.208158        -0.394370
 H         0.206967        -1.376123         0.729461
 H         1.466638        -2.022129        -1.228328
 H         2.143197        -0.478691        -1.977735
 H         3.429948        -2.860349         1.090825
 H         4.807410         0.106711         0.719195
 H         1.979865         2.138895         0.463499
 H         1.683011         1.889891        -1.329218
 H         2.506220        -0.465313         2.184950
