19
Iteration:   865charge 0 multiplicity 1
 C         0.041800        -0.155287         0.277604
 C         1.496024         0.071013        -0.028507
 C         1.988179        -1.054608        -1.078552
 C         3.020606        -1.389177        -0.020989
 O         3.869048        -2.450649         0.246433
 C         3.760568        -0.102636         0.357048
 O         3.705478         1.198947        -0.333422
 C         2.184462         1.439804        -0.334834
 C         2.555262        -0.498073         1.080790
 H        -0.354772         0.471354         1.241062
 H        -0.711148         0.109982        -0.482605
 H        -0.315289        -1.250599         0.241013
 H         1.181538        -1.799597        -1.469282
 H         2.498548        -0.611131        -1.933530
 H         4.102890        -2.819490        -0.642353
 H         4.776909        -0.266806         0.770492
 H         2.021872         2.135339         0.624709
 H         1.838130         1.964463        -1.174579
 H         2.347483        -0.442269         2.152570
