19
Iteration:  2236
 C         0.079788        -0.093517         0.406809
 C         1.548252        -0.009637        -0.074887
 C         2.196096        -1.030178        -1.118653
 C         3.177837        -1.350735        -0.070459
 O         3.772766        -2.573884         0.304903
 C         3.807470         0.019184         0.366759
 O         3.509990         1.216866        -0.325105
 C         2.047715         1.396838        -0.321269
 C         2.498817        -0.492000         0.929114
 H        -0.051943         0.627199         1.132550
 H        -0.688699         0.015208        -0.503373
 H        -0.122633        -1.094828         0.869614
 H         1.520143        -1.861283        -1.248845
 H         2.517280        -0.632685        -2.173918
 H         4.385367        -2.747292        -0.429719
 H         4.892067        -0.057620         0.822234
 H         1.803367         2.037693         0.554654
 H         1.822389         2.145299        -1.067225
 H         2.257232        -0.804931         1.921840
