19
Iteration:  1279charge 0 multiplicity 1
 C         0.039242        -0.111865         0.321080
 C         1.473578         0.058088        -0.060391
 C         2.151716        -0.934167        -1.093151
 C         3.170322        -1.337347        -0.061780
 O         3.765351        -2.555992         0.301770
 C         3.820359        -0.017820         0.341646
 O         3.534595         1.155735        -0.441733
 C         2.147210         1.371334        -0.179046
 C         2.529270        -0.551773         0.959945
 H        -0.220071         0.595318         1.136219
 H        -0.754336         0.003363        -0.363288
 H        -0.081867        -1.216210         0.665159
 H         1.392049        -1.778847        -1.498129
 H         2.649670        -0.415969        -1.865918
 H         4.472647        -2.691259        -0.298533
 H         4.753808         0.022546         0.920456
 H         1.940574         1.916880         0.715364
 H         1.900284         2.027866        -1.088470
 H         2.298264        -0.585461         2.134582
