19
Iteration:  3815charge 0 multiplicity 1
 C         0.136402        -0.105420         0.400564
 C         1.575176         0.028838        -0.048652
 C         2.069039        -1.077426        -1.070118
 C         3.250807        -1.370240        -0.045310
 O         3.793781        -2.590904         0.196687
 C         3.794424         0.069565         0.305919
 O         3.481313         1.199326        -0.450128
 C         2.020681         1.418817        -0.317428
 C         2.638967        -0.496704         1.051906
 H        -0.083875         0.633764         1.103044
 H        -0.507438         0.016830        -0.537051
 H        -0.093834        -1.019435         0.945838
 H         1.263186        -1.882665        -0.995992
 H         2.261566        -0.758946        -2.010229
 H         3.163922        -2.864580         0.920346
 H         4.761575         0.228784         0.788405
 H         1.912852         2.132377         0.573426
 H         1.779717         2.034313        -1.225786
 H         2.455162        -0.672498         2.117875
