19
Iteration:  2681
 C         0.084375        -0.172873         0.423601
 C         1.491935         0.042100         0.093121
 C         2.104331        -1.015359        -1.031456
 C         3.235971        -1.314039         0.035049
 O         3.840455        -2.566751         0.184853
 C         3.836999         0.011958         0.314335
 O         3.513196         1.172607        -0.522437
 C         2.074932         1.388601        -0.412231
 C         2.552569        -0.396666         1.066083
 H        -0.352353         0.533297         1.332563
 H        -0.489999        -0.025217        -0.433780
 H        -0.067433        -1.237016         0.715231
 H         1.303431        -1.872604        -1.279431
 H         2.363538        -0.527794        -1.955511
 H         3.188278        -3.290503         0.154819
 H         4.899116         0.016703         0.734824
 H         1.788337         2.195290         0.419422
 H         1.751214         1.741219        -1.385946
 H         2.525579        -0.553776         2.191616
