19
Iteration:  4145
 C        -0.031454         0.137933         0.395875
 C         1.514984        -0.018162        -0.002412
 C         2.003693        -1.250249        -0.834933
 C         3.233384        -1.327959        -0.063347
 O         3.931686        -2.550584        -0.008582
 C         3.815473         0.056325         0.367525
 O         3.536692         1.202854        -0.376317
 C         2.082099         1.275296        -0.387275
 C         2.563487        -0.465994         1.042428
 H        -0.109547         0.875493         1.095142
 H        -0.613821         0.278779        -0.559568
 H        -0.625691        -0.732463         0.812439
 H         1.243317        -2.146119        -0.565027
 H         2.024578        -1.154993        -1.867381
 H         4.748049        -2.393791         0.417789
 H         4.776730        -0.159637         0.759399
 H         1.798165         2.219781         0.193875
 H         1.893833         1.718775        -1.471802
 H         2.329593        -0.636062         2.080161
