19
Iteration:    16
 C         0.038462         0.153856         0.343843
 C         1.501868        -0.028612        -0.041931
 C         2.063409        -1.106367        -0.938869
 C         3.328144        -1.309654        -0.025742
 O         3.834462        -2.649635         0.058830
 C         3.812609         0.108958         0.507210
 O         3.596473         1.260019        -0.303246
 C         2.065859         1.281059        -0.505872
 C         2.425580        -0.611249         1.046093
 H        -0.098334         0.936323         1.066842
 H        -0.537506         0.292192        -0.562192
 H        -0.291307        -0.779157         0.992099
 H         1.430419        -2.110738        -0.707357
 H         2.140532        -0.954818        -2.012733
 H         4.735648        -2.573633        -0.428988
 H         4.472893         0.256177         1.402317
 H         1.661166         2.100025         0.159111
 H         1.873922         1.458986        -1.651042
 H         2.025504        -1.053549         1.993389
