19
Iteration:  1025
 C         0.063429         0.092603         0.303307
 C         1.521952         0.017351         0.032057
 C         2.075847        -1.041055        -0.999040
 C         3.221052        -1.350193        -0.032980
 O         3.818639        -2.639914         0.062544
 C         3.739095         0.051696         0.484358
 O         3.513276         1.205390        -0.230338
 C         2.135332         1.327659        -0.481909
 C         2.551775        -0.582720         1.060885
 H        -0.087218         0.845012         0.987507
 H        -0.520989         0.379312        -0.608328
 H        -0.294411        -0.914968         0.584909
 H         1.369812        -1.904817        -1.003373
 H         2.200551        -0.616580        -1.981410
 H         4.717087        -2.598597        -0.393270
 H         4.686372         0.134533         1.062166
 H         1.605933         2.157167         0.061624
 H         1.966706         1.444774        -1.633935
 H         2.476335        -0.967109         2.174427
