19
Iteration:  4812charge 0 multiplicity 1
 C         0.113650         0.073958         0.313002
 C         1.536590         0.003435        -0.038157
 C         1.977692        -1.270025        -0.934104
 C         3.203367        -1.335682        -0.058802
 O         3.994789        -2.492097        -0.013602
 C         3.742090        -0.033352         0.431178
 O         3.515223         1.263755        -0.296380
 C         2.151762         1.386403        -0.380615
 C         2.497664        -0.485258         1.093475
 H        -0.121301         0.892210         0.934850
 H        -0.632198        -0.015042        -0.510943
 H        -0.235280        -0.908939         0.867317
 H         1.099228        -2.007142        -0.857298
 H         2.119294        -1.277606        -2.000453
 H         3.499907        -3.077252         0.629751
 H         4.797930        -0.087571         0.666100
 H         1.778407         2.170068         0.348478
 H         1.790727         1.709963        -1.348008
 H         2.217311        -0.617169         2.070921
