19
Iteration:  2433
 C         0.020565        -0.135668         0.213205
 C         1.572724         0.071142         0.115801
 C         2.134720        -0.985959        -0.894922
 C         3.214463        -1.301114         0.018203
 O         3.758082        -2.575214         0.154610
 C         3.810686         0.043260         0.357248
 O         3.501345         1.092268        -0.534401
 C         2.045699         1.416908        -0.309413
 C         2.578768        -0.492420         1.113092
 H        -0.404421         0.235832         1.057417
 H        -0.484394         0.355076        -0.701743
 H        -0.180590        -1.258878         0.207508
 H         1.482850        -1.769791        -0.917844
 H         2.475221        -0.763684        -1.914378
 H         4.632933        -2.628060        -0.336726
 H         4.747173        -0.004156         0.823097
 H         1.944816         2.109473         0.534384
 H         1.662954         1.796898        -1.316883
 H         2.570339        -0.546579         2.242865
