19
Iteration:   294charge 0 multiplicity 1
 C         0.079183         0.008462         0.277000
 C         1.536818         0.023317         0.062088
 C         1.987914        -1.036516        -1.010309
 C         3.226239        -1.303054        -0.053687
 O         3.790031        -2.540068         0.106404
 C         3.817121        -0.014951         0.490089
 O         3.557597         1.155633        -0.382269
 C         2.140109         1.306448        -0.401061
 C         2.494381        -0.549144         1.090248
 H        -0.320837         0.641582         1.181735
 H        -0.463352         0.209065        -0.695876
 H        -0.202606        -0.905487         0.673608
 H         1.441610        -1.924725        -1.126562
 H         2.214586        -0.535237        -2.016257
 H         4.726308        -2.378159        -0.066605
 H         4.766498        -0.034206         1.028128
 H         1.879727         2.113124         0.333333
 H         1.854353         1.668425        -1.503892
 H         2.292868        -0.728156         2.113252
