19
Iteration:  3274
 C         0.095832        -0.164236         0.421677
 C         1.564526         0.034832         0.036765
 C         2.179766        -1.027856        -1.030097
 C         3.155153        -1.365832         0.017408
 O         3.795092        -2.598669         0.178907
 C         3.813759         0.094264         0.333279
 O         3.495681         1.168023        -0.534103
 C         2.025987         1.423591        -0.344302
 C         2.597839        -0.447127         1.015661
 H        -0.079519         0.719222         1.220153
 H        -0.504221         0.126378        -0.401242
 H        -0.191656        -1.215356         0.703938
 H         1.421437        -1.904361        -1.248710
 H         2.545810        -0.679460        -1.982486
 H         3.394855        -3.146300         0.823720
 H         4.824524         0.071327         0.791453
 H         1.692346         2.248529         0.437810
 H         1.594786         1.725015        -1.260139
 H         2.592757        -0.432633         2.143020
