19
Iteration:  3843
 C         0.032341        -0.181266         0.407624
 C         1.524866         0.044816        -0.035976
 C         2.140493        -1.074235        -0.964998
 C         3.221650        -1.374221         0.033792
 O         3.738890        -2.638839         0.088399
 C         3.830725         0.027987         0.359134
 O         3.544537         1.267318        -0.532578
 C         2.034398         1.409832        -0.367654
 C         2.634247        -0.407270         1.105897
 H        -0.290561         0.533609         1.333119
 H        -0.561978        -0.132015        -0.459803
 H        -0.127206        -1.138985         0.914583
 H         1.517562        -1.865771        -1.332465
 H         2.524442        -0.644583        -2.064884
 H         3.449199        -2.886715         0.954898
 H         4.887731         0.065471         0.802656
 H         1.913391         2.132977         0.462256
 H         1.735734         2.075895        -1.194134
 H         2.527928        -0.350690         2.181938
