19
Iteration:  4646
 C         0.018715         0.105642         0.335547
 C         1.473187        -0.050407         0.057390
 C         1.972167        -1.175594        -0.888241
 C         3.274936        -1.305997        -0.052487
 O         3.973347        -2.482362        -0.080821
 C         3.739048         0.028317         0.547231
 O         3.590772         1.113345        -0.420852
 C         2.084095         1.292784        -0.362722
 C         2.486606        -0.473227         1.021414
 H        -0.234014         0.928421         0.972127
 H        -0.592105         0.306592        -0.571194
 H        -0.431293        -0.777380         0.921558
 H         1.318849        -2.130186        -0.666172
 H         1.939332        -0.985273        -1.984914
 H         4.824606        -2.500804         0.479286
 H         4.656143         0.055227         1.057034
 H         1.958323         2.198238         0.325456
 H         1.923822         1.469696        -1.526917
 H         2.165605        -0.527610         2.070880
