19
Iteration:  4661
 C        -0.049237         0.144907         0.384851
 C         1.459403        -0.031642         0.001001
 C         2.037840        -1.177240        -0.912386
 C         3.233670        -1.295771         0.005942
 O         3.971306        -2.542542        -0.068194
 C         3.760750         0.007282         0.434515
 O         3.551619         1.151269        -0.340247
 C         2.128220         1.288982        -0.510555
 C         2.494798        -0.517300         1.192950
 H        -0.174084         1.100003         0.982800
 H        -0.663946         0.312368        -0.544072
 H        -0.447350        -0.752128         0.930222
 H         1.454399        -2.132149        -0.882092
 H         2.286780        -0.889000        -1.933117
 H         4.910793        -2.194240        -0.172307
 H         4.669501         0.070140         1.096461
 H         1.720219         2.052677         0.165904
 H         1.784915         1.645225        -1.565208
 H         2.443042        -0.795284         2.255200
