19
Iteration:  3394
 C         0.051955         0.066939         0.344873
 C         1.534837         0.026938         0.047860
 C         1.935998        -1.192256        -0.888529
 C         3.172861        -1.355509        -0.057616
 O         4.012813        -2.455360         0.013014
 C         3.775940         0.027252         0.438077
 O         3.504395         1.230569        -0.246124
 C         2.155154         1.251348        -0.556269
 C         2.554148        -0.480644         1.059811
 H        -0.293373         0.940851         1.094606
 H        -0.486664         0.137683        -0.539070
 H        -0.140779        -0.856199         0.928809
 H         1.268673        -2.191526        -0.807910
 H         2.097907        -0.819141        -1.973091
 H         3.416126        -3.274966         0.112505
 H         4.700954        -0.124373         0.865445
 H         1.640540         2.188305        -0.157057
 H         2.073710         1.279981        -1.631776
 H         2.422227        -0.610141         2.138117
