19
Iteration:  3687charge 0 multiplicity 1
 C         0.073713         0.006376         0.364169
 C         1.542096         0.014807         0.026357
 C         1.875508        -1.167539        -0.986236
 C         3.177027        -1.326120        -0.061513
 O         4.032555        -2.488707         0.078786
 C         3.766422         0.008623         0.328020
 O         3.543312         1.242639        -0.288054
 C         2.150897         1.332953        -0.454484
 C         2.504877        -0.511804         1.094200
 H        -0.127828         0.914962         0.939673
 H        -0.700505         0.038110        -0.430314
 H        -0.129852        -0.999915         0.925928
 H         1.088616        -1.951624        -0.911468
 H         2.148701        -1.063455        -2.118294
 H         3.549454        -3.179052         0.643031
 H         4.766038         0.037178         0.823122
 H         1.869473         2.224579         0.115672
 H         1.952943         1.555851        -1.566128
 H         2.427819        -0.726030         2.156705
