19
Iteration:  3785charge 0 multiplicity 1
 C        -0.026141        -0.012768         0.427552
 C         1.467307         0.008100         0.064110
 C         1.978547        -1.075168        -1.031314
 C         3.176497        -1.341110        -0.018010
 O         4.039007        -2.424381         0.122637
 C         3.780993        -0.021968         0.313640
 O         3.609921         1.127982        -0.405363
 C         2.132046         1.309979        -0.441957
 C         2.526273        -0.489550         1.081517
 H        -0.275284         0.704247         1.160483
 H        -0.633571         0.364177        -0.455902
 H        -0.390290        -1.101579         0.690609
 H         1.203277        -1.878342        -0.938882
 H         2.218679        -0.603138        -2.007628
 H         3.383422        -3.131094         0.429931
 H         4.673210         0.080616         0.827440
 H         1.985545         2.184824         0.291676
 H         1.896895         1.507992        -1.411642
 H         2.278867        -0.719146         2.144702
