19
Iteration:  2078charge 0 multiplicity 1
 C         0.182949        -0.318438         0.337311
 C         1.561612         0.087144         0.006710
 C         2.068956        -1.044418        -1.077132
 C         3.175755        -1.308351        -0.047311
 O         3.691505        -2.611023         0.251152
 C         3.835882         0.053083         0.385436
 O         3.532551         1.253532        -0.415029
 C         2.106070         1.503079        -0.368817
 C         2.551354        -0.438590         1.084035
 H        -0.227937         0.270082         1.287385
 H        -0.400404        -0.002112        -0.445046
 H         0.037282        -1.387900         0.515971
 H         1.458589        -2.086476        -1.085922
 H         2.373132        -0.842419        -2.083517
 H         3.785412        -3.063319        -0.650903
 H         4.764744         0.043280         0.959897
 H         1.991445         2.374556         0.425757
 H         1.674989         1.807670        -1.298116
 H         2.300483        -0.593887         2.116091
