19
Iteration:  4070charge 0 multiplicity 1
 C         0.018388        -0.015022         0.364162
 C         1.495845        -0.002368         0.027345
 C         1.940305        -1.212074        -0.888721
 C         3.181165        -1.379544        -0.048097
 O         3.902841        -2.517079         0.058285
 C         3.791067         0.021857         0.356647
 O         3.590927         1.204468        -0.437171
 C         2.140474         1.366110        -0.397932
 C         2.536084        -0.386459         1.094182
 H        -0.017627         0.602325         1.226824
 H        -0.687756         0.266000        -0.441856
 H        -0.402799        -0.962128         0.918343
 H         1.233477        -2.136932        -0.581045
 H         2.085194        -1.079699        -1.946819
 H         4.907261        -2.415220        -0.043325
 H         4.726987        -0.062919         0.818235
 H         2.031941         2.178995         0.318527
 H         1.844149         1.696227        -1.460300
 H         2.274850        -0.599288         2.113405
