19
Iteration:  3428charge 0 multiplicity 1
 C         0.031474        -0.030497         0.436998
 C         1.462347         0.032859        -0.074353
 C         2.056659        -1.195840        -1.031331
 C         3.175897        -1.326599        -0.069286
 O         3.951147        -2.474139         0.205311
 C         3.786502         0.018705         0.380206
 O         3.508049         1.149509        -0.449483
 C         2.166230         1.444588        -0.326264
 C         2.541944        -0.477819         0.969220
 H        -0.155466         0.672120         1.376656
 H        -0.749768         0.123889        -0.298092
 H        -0.122125        -1.065066         0.713341
 H         1.420045        -2.185368        -1.223823
 H         2.391045        -0.890301        -2.082640
 H         3.432995        -3.243330         0.536925
 H         4.734224        -0.088417         0.907156
 H         1.928064         2.043254         0.643826
 H         1.892006         2.019927        -1.155156
 H         2.370621        -0.577229         2.015538
