19
Iteration:  3877charge 0 multiplicity 1
 C         0.061018        -0.062423         0.411707
 C         1.535224         0.055651         0.078970
 C         1.978247        -1.052084        -0.928793
 C         3.214229        -1.305472        -0.081441
 O         3.920169        -2.459447         0.037780
 C         3.770661        -0.046515         0.446425
 O         3.586791         1.105427        -0.496514
 C         2.083623         1.356134        -0.483682
 C         2.539312        -0.509410         1.156015
 H        -0.485650         0.653373         1.182920
 H        -0.549825         0.159755        -0.431039
 H        -0.044866        -1.087207         0.493912
 H         1.181332        -1.772748        -0.937174
 H         2.176119        -0.640076        -2.050186
 H         4.023856        -2.735046         0.960459
 H         4.731372        -0.109783         1.003212
 H         1.809672         2.151436         0.227127
 H         1.747896         1.555743        -1.539063
 H         2.255174        -0.547723         2.187595
