19
Iteration:  1688charge 0 multiplicity 1
 C        -0.021826        -0.064233         0.263904
 C         1.514290         0.023228         0.018957
 C         2.109779        -1.062599        -0.997822
 C         3.257109        -1.337159        -0.053788
 O         3.775195        -2.618032         0.207294
 C         3.813565         0.078715         0.382709
 O         3.489015         1.154767        -0.410684
 C         2.106926         1.406310        -0.328495
 C         2.625999        -0.472854         1.073468
 H        -0.312050         0.534851         1.186428
 H        -0.580837         0.343688        -0.698929
 H        -0.295344        -1.063625         0.500353
 H         1.477631        -1.892948        -1.114505
 H         2.447851        -0.692332        -1.983755
 H         4.378728        -3.011260        -0.472182
 H         4.718970         0.166235         0.993791
 H         1.978198         2.139491         0.579258
 H         1.614170         1.797897        -1.184936
 H         2.607440        -0.575139         2.102125
