19
Iteration:  4872charge 0 multiplicity 1
 C         0.012994         0.045640         0.378260
 C         1.509126        -0.003461        -0.027336
 C         2.017787        -1.159336        -0.897162
 C         3.173763        -1.318309         0.063308
 O         4.002537        -2.403558        -0.048774
 C         3.789555        -0.021482         0.519512
 O         3.528541         1.102115        -0.374794
 C         2.151788         1.349181        -0.521916
 C         2.466099        -0.490939         1.108793
 H        -0.035982         0.632262         1.333450
 H        -0.588323         0.565991        -0.324226
 H        -0.248702        -0.928647         0.480472
 H         1.317952        -2.009670        -0.894410
 H         2.411928        -0.903503        -1.953903
 H         3.428058        -3.104390        -0.269123
 H         4.704944         0.033101         1.184155
 H         1.863298         2.192294         0.095395
 H         1.871686         1.489982        -1.650132
 H         2.466645        -0.762142         2.248813
