19
Iteration:  3170charge 0 multiplicity 1
 C         0.020113         0.254792         0.328134
 C         1.467089        -0.077916         0.032176
 C         1.984208        -1.251705        -0.830445
 C         3.221624        -1.317311        -0.002828
 O         4.157756        -2.384115        -0.003538
 C         3.701902         0.027041         0.419709
 O         3.529548         1.081083        -0.447164
 C         2.062409         1.275124        -0.399811
 C         2.529149        -0.558028         1.132704
 H        -0.023169         0.944351         1.159560
 H        -0.608500         0.683471        -0.614054
 H        -0.515317        -0.645910         0.638864
 H         1.212021        -1.937763        -0.564793
 H         2.179652        -1.117955        -2.011027
 H         3.760126        -3.152126        -0.469522
 H         4.621686         0.042379         0.950646
 H         1.753473         2.147934         0.276320
 H         1.779940         1.512790        -1.503319
 H         2.155904        -0.659232         2.149090
