19
Iteration:   480
 C         0.102310         0.020189         0.283223
 C         1.580037         0.048288        -0.030536
 C         1.924960        -1.171059        -0.913258
 C         3.146693        -1.398026        -0.078586
 O         3.842052        -2.584193         0.017230
 C         3.760533         0.038574         0.406000
 O         3.555811         1.265442        -0.182424
 C         2.151014         1.378654        -0.487518
 C         2.553079        -0.535208         1.076333
 H        -0.335452         0.806405         1.057566
 H        -0.312801         0.017512        -0.786350
 H         0.023683        -0.870196         0.772186
 H         1.170402        -1.931029        -0.807938
 H         2.173885        -0.993210        -2.016731
 H         4.373752        -2.544394         0.822847
 H         4.755147         0.003352         0.898527
 H         1.800583         2.292016         0.034330
 H         1.986621         1.625676        -1.653129
 H         2.508288        -0.689207         2.210677
