19
Iteration:  3372charge 0 multiplicity 1
 C        -0.092535         0.140328         0.313292
 C         1.416332        -0.075674         0.076212
 C         1.977808        -1.152769        -0.785204
 C         3.225988        -1.280641        -0.030660
 O         4.030673        -2.421511        -0.152521
 C         3.806042         0.060769         0.490924
 O         3.566680         1.207323        -0.259525
 C         2.159261         1.185562        -0.660874
 C         2.568367        -0.534820         1.235056
 H        -0.123308         1.114607         1.026261
 H        -0.487868         0.367225        -0.602298
 H        -0.601477        -0.653014         0.903949
 H         1.447933        -2.245733        -0.548786
 H         2.244077        -1.095517        -1.924121
 H         3.484381        -3.172645        -0.073452
 H         4.655013        -0.204062         0.975463
 H         1.767586         2.249280        -0.515616
 H         2.085830         0.932689        -1.663040
 H         2.380520        -0.774996         2.307069
