19
Iteration:  4976
 C         0.026184        -0.065721         0.435951
 C         1.491391         0.030373        -0.071265
 C         2.110189        -1.135845        -0.943021
 C         3.171500        -1.370113         0.006724
 O         3.953813        -2.514439         0.001668
 C         3.751213        -0.040693         0.442481
 O         3.579480         1.223783        -0.428548
 C         2.112488         1.467229        -0.427515
 C         2.493871        -0.467792         1.112134
 H        -0.116807         0.777299         1.139682
 H        -0.672996        -0.099559        -0.457351
 H        -0.094708        -1.108715         1.078782
 H         1.445298        -2.058767        -1.110503
 H         2.390224        -1.006261        -2.006066
 H         3.344610        -3.176291         0.429936
 H         4.577774         0.002338         1.183763
 H         1.872889         2.422097         0.159293
 H         1.851755         1.741617        -1.405882
 H         2.132617        -0.652065         2.101340
