19
Iteration:  4503charge 0 multiplicity 1
 C        -0.042542         0.090085         0.296563
 C         1.514810        -0.108294         0.110289
 C         1.959386        -1.153786        -0.843142
 C         3.260938        -1.284873        -0.053918
 O         3.912392        -2.451854         0.075698
 C         3.844114         0.020873         0.413651
 O         3.524714         1.201489        -0.412570
 C         2.104087         1.275184        -0.435440
 C         2.615032        -0.556925         1.086678
 H        -0.181998         1.046028         0.909127
 H        -0.486742         0.446366        -0.616826
 H        -0.491104        -0.775478         0.815998
 H         1.374360        -2.067603        -0.644020
 H         1.816939        -0.830975        -1.882456
 H         4.159074        -2.785269        -0.866248
 H         4.871413        -0.066944         0.906014
 H         1.889992         2.049593         0.227421
 H         1.681815         1.495792        -1.512869
 H         2.444164        -0.698624         2.119437
