19
Iteration:  2883
 C         0.012727        -0.040185         0.245881
 C         1.561637        -0.024955         0.108912
 C         2.015074        -1.131008        -0.891482
 C         3.220249        -1.316285         0.041318
 O         3.948224        -2.565689         0.089168
 C         3.813502         0.055054         0.344077
 O         3.508292         1.152095        -0.533300
 C         2.095599         1.386761        -0.365391
 C         2.582321        -0.385858         1.161870
 H        -0.236539         0.442043         1.156896
 H        -0.703765         0.237983        -0.679547
 H        -0.257683        -1.105212         0.410568
 H         1.331208        -1.931184        -0.723363
 H         2.045505        -0.857368        -2.053053
 H         3.318218        -3.169226        -0.263718
 H         4.755590         0.237620         0.907935
 H         1.856030         2.071876         0.516259
 H         1.636150         1.916495        -1.218615
 H         2.485497        -0.552364         2.264691
