19
Iteration:  1655charge 0 multiplicity 1
 C         0.122926        -0.219568         0.344660
 C         1.504611         0.059938        -0.015024
 C         2.155167        -0.920778        -1.102030
 C         3.142182        -1.362150        -0.021918
 O         3.716890        -2.521646         0.274247
 C         3.754687        -0.016244         0.328118
 O         3.526632         1.119064        -0.538975
 C         2.163261         1.411888        -0.244918
 C         2.513185        -0.473211         1.065827
 H        -0.147645         0.398314         1.270018
 H        -0.809033        -0.029594        -0.367357
 H         0.094773        -1.230398         0.630278
 H         1.499734        -1.662575        -1.483174
 H         2.754146        -0.577334        -1.943324
 H         4.728016        -2.528883         0.134958
 H         4.651884         0.002462         0.863272
 H         2.144111         2.060930         0.725597
 H         1.738198         2.050374        -0.985085
 H         2.302666        -0.608962         2.086362
