19
Iteration:  1713charge 0 multiplicity 1
 C         0.046192         0.050733         0.265132
 C         1.486675        -0.075024         0.038373
 C         1.918212        -1.225354        -0.928758
 C         3.167480        -1.296671        -0.019173
 O         3.938398        -2.479000         0.082266
 C         3.819543         0.034246         0.395737
 O         3.603943         1.268450        -0.254751
 C         2.119610         1.335533        -0.487742
 C         2.543031        -0.516303         1.139404
 H        -0.138589         0.744212         1.026059
 H        -0.368168         0.410278        -0.723781
 H        -0.467424        -0.945353         0.551663
 H         1.388803        -2.137897        -0.797757
 H         2.019466        -0.989146        -2.021054
 H         4.125719        -2.834128        -0.766811
 H         4.864255        -0.111342         0.906820
 H         1.677656         2.259592         0.048604
 H         1.939619         1.341115        -1.507417
 H         2.214138        -0.853117         2.175974
