19
Iteration:  4124charge 0 multiplicity 1
 C         0.067789         0.211038         0.415049
 C         1.489572        -0.040439         0.137790
 C         1.971075        -1.165958        -0.936116
 C         3.203911        -1.343494         0.029779
 O         4.000818        -2.498523        -0.075568
 C         3.735303        -0.028335         0.410304
 O         3.505054         1.194560        -0.362728
 C         2.093939         1.211197        -0.610920
 C         2.535959        -0.533790         1.193442
 H        -0.009379         0.940848         1.137509
 H        -0.537653         0.389669        -0.504172
 H        -0.530263        -0.694952         0.794666
 H         1.362915        -2.237176        -1.022254
 H         2.068526        -0.836797        -1.912119
 H         4.866102        -2.414735         0.415266
 H         4.678097         0.032185         0.908227
 H         1.711941         2.167649        -0.044352
 H         1.754261         1.553645        -1.758537
 H         2.507867        -0.569797         2.280936
