19
Iteration:   575
 C        -0.045727         0.008986         0.281702
 C         1.511065         0.043045        -0.037832
 C         1.999047        -1.179790        -1.002977
 C         3.102164        -1.379692         0.020960
 O         3.920832        -2.546126         0.106937
 C         3.787425        -0.086748         0.391219
 O         3.638393         1.201218        -0.296334
 C         2.167495         1.426425        -0.357965
 C         2.504276        -0.461574         1.059734
 H        -0.288259         0.598661         1.126518
 H        -0.583007         0.435552        -0.607569
 H        -0.440599        -0.948446         0.602484
 H         1.236226        -1.898319        -1.023660
 H         2.400033        -0.918845        -2.021182
 H         4.731422        -2.366650        -0.490996
 H         4.751679        -0.252185         0.870474
 H         1.826340         2.177234         0.389943
 H         2.081427         1.829944        -1.278399
 H         2.165872        -0.396617         2.166674
