19
Iteration:  3683charge 0 multiplicity 1
 C         0.082781        -0.009314         0.406171
 C         1.500320         0.006487         0.010718
 C         1.948485        -1.170276        -1.010145
 C         3.171092        -1.301456        -0.035855
 O         4.012144        -2.514769         0.088054
 C         3.751748         0.018331         0.338636
 O         3.575889         1.232021        -0.306088
 C         2.139725         1.341581        -0.443471
 C         2.509975        -0.473787         1.037307
 H        -0.209490         0.792552         1.048966
 H        -0.736878         0.005752        -0.441740
 H        -0.144836        -0.926975         0.951388
 H         1.099487        -1.926952        -0.973421
 H         2.101664        -1.141690        -2.082033
 H         3.526232        -3.084966         0.650284
 H         4.808116        -0.059597         0.781521
 H         1.736524         2.221577         0.176444
 H         1.953486         1.659852        -1.388210
 H         2.355568        -0.753431         2.079114
