19
Iteration:  4194
 C         0.030355        -0.103829         0.429067
 C         1.521024         0.016516         0.015491
 C         2.068862        -0.977266        -0.994049
 C         3.158119        -1.315384         0.001325
 O         3.810744        -2.574650         0.162690
 C         3.844974        -0.055884         0.287683
 O         3.511553         1.106388        -0.515060
 C         2.073756         1.376075        -0.376760
 C         2.575826        -0.392183         1.196844
 H        -0.409938         0.648347         1.231496
 H        -0.605005        -0.077066        -0.438476
 H        -0.146939        -1.099159         0.710705
 H         1.528837        -1.798313        -1.289104
 H         2.499260        -0.459605        -1.979481
 H         4.719425        -2.467633        -0.290762
 H         4.874557        -0.004831         0.798303
 H         1.951377         2.253938         0.275174
 H         1.764015         1.757871        -1.391511
 H         2.521105        -0.648993         2.254944
