19
Iteration:  3320charge 0 multiplicity 1
 C        -0.030517         0.197191         0.395553
 C         1.467831        -0.013222         0.013055
 C         1.923173        -1.263751        -0.895484
 C         3.176221        -1.362186         0.018410
 O         4.169539        -2.360227         0.014242
 C         3.750709        -0.055456         0.339782
 O         3.576141         1.143669        -0.370723
 C         2.155585         1.283120        -0.470812
 C         2.454831        -0.499651         1.119891
 H        -0.296876         0.914310         1.179828
 H        -0.633138         0.482114        -0.535811
 H        -0.362581        -0.785852         0.581818
 H         1.247909        -2.069804        -0.689427
 H         2.071656        -1.176129        -1.929294
 H         3.802581        -3.245899        -0.071404
 H         4.618567        -0.028656         0.933783
 H         1.909972         2.136393         0.239682
 H         1.790585         1.619949        -1.501331
 H         2.296997        -0.615227         2.205874
