19
Iteration:  2356charge 0 multiplicity 1
 C         0.033508         0.166302         0.396085
 C         1.493754        -0.055077        -0.040054
 C         1.885134        -1.222817        -0.960981
 C         3.145548        -1.382122        -0.067230
 O         4.117250        -2.388745        -0.050926
 C         3.722938         0.000601         0.497508
 O         3.577524         1.272772        -0.151711
 C         2.209142         1.215561        -0.584791
 C         2.409764        -0.555349         1.082795
 H        -0.054310         1.028488         0.964702
 H        -0.754540         0.249508        -0.513805
 H        -0.202863        -0.734451         1.055430
 H         1.264567        -2.068660        -0.974489
 H         2.081842        -0.883392        -2.082742
 H         4.287407        -2.557182         0.910223
 H         4.694915        -0.229623         0.919559
 H         1.763262         2.178371        -0.337072
 H         2.060201         0.922737        -1.672795
 H         2.089924        -0.853855         2.050915
