19
Iteration:  3950
 C        -0.021400         0.105410         0.386709
 C         1.458431        -0.010153         0.123966
 C         1.972842        -1.164128        -0.967471
 C         3.159341        -1.328924        -0.049458
 O         4.012610        -2.456768        -0.014941
 C         3.827608         0.012778         0.369014
 O         3.569670         1.194099        -0.303268
 C         2.084540         1.260003        -0.575715
 C         2.598036        -0.516688         1.125471
 H        -0.356876         0.818250         1.171964
 H        -0.557455         0.525176        -0.518273
 H        -0.457554        -0.962129         0.798833
 H         1.471166        -2.116209        -0.642417
 H         2.006870        -0.848415        -1.998709
 H         3.867280        -2.896397         0.800987
 H         4.838579        -0.062541         0.878215
 H         1.750627         2.139281         0.017105
 H         1.806394         1.234886        -1.593904
 H         2.506819        -0.729746         2.177937
