19
Iteration:  3371
 C        -0.091324         0.146296         0.306101
 C         1.415978        -0.071251         0.080242
 C         1.979070        -1.161786        -0.773230
 C         3.224421        -1.281634        -0.030167
 O         4.035442        -2.420229        -0.159139
 C         3.797649         0.063044         0.498217
 O         3.567296         1.208126        -0.265142
 C         2.161130         1.180662        -0.647964
 C         2.565313        -0.532450         1.223760
 H        -0.121513         1.118833         1.028927
 H        -0.506346         0.391513        -0.599380
 H        -0.603833        -0.670671         0.923465
 H         1.461403        -2.246331        -0.544819
 H         2.253085        -1.080769        -1.916970
 H         3.480524        -3.180407        -0.080315
 H         4.673711        -0.218778         0.977409
 H         1.767477         2.224953        -0.522959
 H         2.098013         0.919973        -1.708519
 H         2.372222        -0.775110         2.305794
