19
Iteration:  2654charge 0 multiplicity 1
 C         0.180450        -0.356012         0.432886
 C         1.536702         0.072836         0.039671
 C         2.007828        -1.040668        -1.045369
 C         3.239265        -1.273683        -0.012463
 O         3.658613        -2.558478         0.167593
 C         3.833063         0.048105         0.391190
 O         3.543841         1.220913        -0.528522
 C         2.123455         1.436740        -0.406422
 C         2.621243        -0.395369         1.093852
 H        -0.185071         0.087968         1.237424
 H        -0.600842        -0.286070        -0.467317
 H         0.253221        -1.421280         0.639808
 H         1.279042        -1.735416        -1.189566
 H         2.292440        -0.617774        -2.075706
 H         3.168426        -2.860140         0.950441
 H         4.835618         0.009777         0.740646
 H         1.781954         2.123234         0.258425
 H         1.884379         1.875972        -1.432534
 H         2.683324        -0.477851         2.145034
