19
Iteration:   386
 C        -0.118180        -0.012199         0.202722
 C         1.431869         0.017263         0.033413
 C         2.011616        -1.040409        -0.990137
 C         3.244064        -1.300559        -0.059326
 O         3.881642        -2.527049         0.194391
 C         3.822293        -0.004914         0.373056
 O         3.611129         1.133501        -0.359690
 C         2.199953         1.369854        -0.324522
 C         2.544235        -0.549918         1.065436
 H        -0.253587         0.582971         1.039350
 H        -0.466988         0.502490        -0.628413
 H        -0.656456        -1.072559         0.377845
 H         1.296735        -1.937449        -0.878719
 H         1.986288        -0.700687        -2.013365
 H         4.673833        -2.582068        -0.343390
 H         4.784794        -0.039157         0.983405
 H         1.956647         2.137603         0.526097
 H         1.799714         1.655097        -1.210338
 H         2.502974        -0.806320         2.145147
