19
Iteration:  3027
 C         0.001812        -0.160313         0.263080
 C         1.527219         0.028938         0.069022
 C         2.042589        -1.055422        -0.923656
 C         3.195828        -1.295818         0.033555
 O         3.922584        -2.482900         0.089568
 C         3.802004        -0.005363         0.410336
 O         3.468009         1.065289        -0.590451
 C         2.164315         1.429708        -0.282143
 C         2.558090        -0.362525         1.112946
 H        -0.320767         0.239142         1.202597
 H        -0.637241         0.315281        -0.683957
 H        -0.151392        -1.201210         0.507578
 H         1.340998        -1.834531        -1.048095
 H         2.494648        -0.663291        -1.957202
 H         3.376040        -3.222610         0.336108
 H         4.784044        -0.200539         0.868955
 H         2.108800         2.109035         0.603986
 H         1.796898         1.825583        -1.254221
 H         2.594865        -0.437602         2.190861
