19
Iteration:  3393charge 0 multiplicity 1
 C         0.045104         0.071181         0.343405
 C         1.535860         0.025833         0.053923
 C         1.936123        -1.196357        -0.892612
 C         3.178375        -1.352922        -0.049477
 O         4.011117        -2.451199         0.005805
 C         3.776989         0.020207         0.441703
 O         3.504032         1.228658        -0.243097
 C         2.155233         1.247367        -0.563816
 C         2.556492        -0.482090         1.065835
 H        -0.314247         0.955261         1.089703
 H        -0.493345         0.151888        -0.543113
 H        -0.167873        -0.873657         0.941724
 H         1.283729        -2.178591        -0.803352
 H         2.073045        -0.801555        -1.973489
 H         3.408120        -3.249903         0.103570
 H         4.727178        -0.083540         0.862030
 H         1.644041         2.178079        -0.181125
 H         2.087118         1.286972        -1.686265
 H         2.445125        -0.620929         2.159148
