19
Iteration:  4759
 C         0.074949        -0.059173         0.328671
 C         1.530390         0.023449         0.079752
 C         2.132746        -0.951815        -1.015147
 C         3.182979        -1.409491         0.068832
 O         3.944996        -2.518594         0.071860
 C         3.770085         0.015208         0.368132
 O         3.500095         1.070538        -0.475090
 C         2.018114         1.419191        -0.353423
 C         2.530516        -0.484372         1.108846
 H        -0.287521         0.535048         1.135072
 H        -0.394952         0.404357        -0.556361
 H        -0.151508        -1.113577         0.492848
 H         1.247582        -1.622188        -1.344799
 H         2.578965        -0.535703        -1.943815
 H         3.377250        -3.248385         0.478805
 H         4.714572         0.080083         0.948038
 H         1.917108         2.143490         0.451786
 H         1.671991         1.689664        -1.422623
 H         2.468907        -0.607978         2.139098
