19
Iteration:  4486charge 0 multiplicity 1
 C        -0.015588         0.178554         0.328178
 C         1.445218        -0.039391         0.015677
 C         1.975783        -1.277783        -0.872857
 C         3.253634        -1.317078        -0.034186
 O         3.935120        -2.583385         0.012808
 C         3.818622         0.075229         0.362949
 O         3.526620         1.192498        -0.369020
 C         2.069192         1.279884        -0.373250
 C         2.619410        -0.420939         1.134170
 H        -0.203504         1.022685         0.932789
 H        -0.416180         0.465549        -0.710881
 H        -0.460957        -0.748270         0.833289
 H         1.393323        -2.240976        -0.619619
 H         2.115300        -1.311120        -1.965866
 H         4.655590        -2.522686        -0.699964
 H         4.741350         0.148898         0.863913
 H         1.583046         1.975359         0.439320
 H         1.792136         1.583178        -1.343302
 H         2.553918        -0.667261         2.199745
