19
Iteration:  2536
 C         0.008364         0.130444         0.333328
 C         1.513792        -0.006457         0.020198
 C         1.934713        -1.289328        -0.789570
 C         3.182207        -1.334703        -0.019024
 O         4.059589        -2.432243        -0.098842
 C         3.728826         0.041392         0.463754
 O         3.563583         1.185733        -0.245751
 C         2.156986         1.240671        -0.560081
 C         2.502919        -0.487032         1.181431
 H        -0.191981         0.938169         1.088722
 H        -0.463240         0.480848        -0.644695
 H        -0.531649        -0.745266         0.555194
 H         1.218252        -2.112315        -0.502075
 H         1.908300        -1.097217        -1.880995
 H         4.078229        -2.912217        -0.907223
 H         4.726802         0.039874         0.871885
 H         1.603301         2.171560        -0.207852
 H         2.115892         1.393876        -1.667135
 H         2.377612        -0.557222         2.212729
