19
Iteration:  1293charge 0 multiplicity 1
 C         0.069512        -0.068714         0.405087
 C         1.540954        -0.038610        -0.091039
 C         2.211378        -1.003190        -1.158681
 C         3.184529        -1.345878         0.026456
 O         3.739292        -2.610159         0.163232
 C         3.788078         0.010861         0.414947
 O         3.517607         1.152354        -0.382045
 C         2.082329         1.411755        -0.298836
 C         2.469992        -0.452771         1.053396
 H        -0.093526         0.742264         1.194162
 H        -0.492901         0.161660        -0.457406
 H        -0.130793        -0.967084         0.868534
 H         1.651735        -1.887720        -1.490176
 H         2.588924        -0.532733        -2.048127
 H         4.644945        -2.632451        -0.301819
 H         4.700134         0.062051         0.962451
 H         1.981972         1.888345         0.634401
 H         1.655316         2.021239        -1.233893
 H         2.348886        -0.504775         2.114898
