19
Iteration:     9charge 0 multiplicity 1
 C         0.034644         0.076579         0.316590
 C         1.556658        -0.008727        -0.012539
 C         2.063057        -1.103152        -0.949263
 C         3.210727        -1.283613        -0.008576
 O         3.859882        -2.591210         0.110302
 C         3.791053         0.058150         0.431103
 O         3.587958         1.177175        -0.326522
 C         2.083236         1.314457        -0.437255
 C         2.480991        -0.579367         1.044555
 H        -0.223640         0.929675         1.082539
 H        -0.682091         0.262255        -0.551857
 H        -0.283950        -0.859492         0.611859
 H         1.416667        -1.871117        -0.884049
 H         2.203406        -0.739643        -2.043181
 H         4.675546        -2.679440        -0.436698
 H         4.506055         0.205930         1.204413
 H         1.702486         2.077936         0.232101
 H         1.949838         1.659145        -1.402688
 H         2.065751        -0.863044         1.992843
