19
Iteration:  1524charge 0 multiplicity 1
 C        -0.067993         0.010192         0.355128
 C         1.485052        -0.020798        -0.020453
 C         2.001807        -1.213356        -0.978916
 C         3.187841        -1.374428        -0.003234
 O         3.961897        -2.427857         0.043712
 C         3.747572        -0.032809         0.471349
 O         3.653060         1.195183        -0.292964
 C         2.181092         1.368060        -0.456582
 C         2.483438        -0.485977         1.084722
 H        -0.238604         0.735522         1.139530
 H        -0.642701         0.410990        -0.522971
 H        -0.458584        -0.842995         0.774369
 H         1.327922        -2.049375        -0.949918
 H         2.245981        -0.933224        -2.061483
 H         3.982840        -2.982230        -0.755496
 H         4.675641        -0.050130         1.040010
 H         1.960044         2.339772         0.168037
 H         1.985315         1.661392        -1.547397
 H         2.241288        -0.383747         2.241803
