19
Iteration:  2199
 C         0.055009        -0.083410         0.266110
 C         1.510529         0.042357         0.112485
 C         2.014937        -1.094139        -0.871715
 C         3.216884        -1.329118        -0.011245
 O         3.831478        -2.595669        -0.063349
 C         3.764920         0.088208         0.507513
 O         3.567935         1.256793        -0.278792
 C         2.141824         1.342835        -0.561774
 C         2.543030        -0.505544         1.105289
 H        -0.446784         0.583884         1.098924
 H        -0.367318         0.272460        -0.583691
 H        -0.272015        -1.059556         0.498234
 H         1.288899        -2.038955        -0.736995
 H         2.151489        -0.900348        -1.905217
 H         4.757314        -2.516374         0.010074
 H         4.693730         0.048034         0.996880
 H         1.741275         2.167533        -0.073016
 H         1.943466         1.284716        -1.605436
 H         2.289744        -0.755643         2.173331
