19
Iteration:  4780charge 0 multiplicity 1
 C        -0.118309        -0.059102         0.322121
 C         1.451223         0.043627         0.056639
 C         2.063934        -1.008136        -0.985946
 C         3.257831        -1.328033        -0.034199
 O         3.949969        -2.498302         0.001021
 C         3.825369         0.012249         0.462010
 O         3.536193         1.099694        -0.461007
 C         2.154990         1.365013        -0.368621
 C         2.530108        -0.510831         1.172660
 H        -0.361006         0.672731         1.009443
 H        -0.605074         0.243401        -0.615820
 H        -0.186614        -1.094268         0.750102
 H         1.387409        -1.954987        -1.153153
 H         2.380068        -0.588316        -1.967495
 H         3.616460        -2.900654         0.849834
 H         4.862351        -0.127746         0.806277
 H         2.095688         2.202380         0.343283
 H         1.784601         1.561095        -1.405614
 H         2.405873        -0.618436         2.197367
