19
Iteration:    38
 C         0.023448         0.207216         0.377505
 C         1.525065        -0.063900        -0.048350
 C         2.073117        -1.255018        -0.987678
 C         3.220287        -1.323889        -0.087478
 O         3.862250        -2.556462         0.005522
 C         3.736972         0.058573         0.485285
 O         3.483711         1.222718        -0.124384
 C         2.163122         1.278577        -0.604064
 C         2.528640        -0.517760         1.129193
 H        -0.040102         1.085137         1.025026
 H        -0.576730         0.304904        -0.530263
 H        -0.370887        -0.578468         1.157519
 H         1.393649        -2.247305        -0.917112
 H         2.293624        -0.959149        -2.010892
 H         4.747716        -2.498178        -0.278773
 H         4.725207        -0.037353         1.018433
 H         1.600177         2.179479        -0.211764
 H         2.279693         1.263447        -1.774962
 H         2.295674        -0.586044         2.215001
