19
Iteration:  3615charge 0 multiplicity 1
 C        -0.004149        -0.144094         0.310690
 C         1.528637         0.058078         0.041969
 C         2.065484        -1.019793        -0.947842
 C         3.156282        -1.318710         0.050767
 O         3.913471        -2.531289         0.175351
 C         3.785442        -0.001100         0.247468
 O         3.518576         1.147656        -0.489952
 C         2.117038         1.369452        -0.330849
 C         2.603007        -0.432618         1.147976
 H        -0.397028         0.378071         1.289824
 H        -0.544570         0.341302        -0.502215
 H        -0.197234        -1.142621         0.199495
 H         1.362028        -1.869816        -1.063910
 H         2.267045        -0.677522        -1.952419
 H         3.298167        -3.286845        -0.013523
 H         4.718488        -0.047510         0.658442
 H         1.965548         2.277281         0.273852
 H         1.841201         1.737245        -1.337244
 H         2.893247        -0.509470         2.199224
