19
Iteration:    31charge 0 multiplicity 1
 C         0.029546         0.177901         0.389486
 C         1.493357        -0.064336        -0.036699
 C         2.076071        -1.246657        -0.974933
 C         3.279368        -1.292468        -0.046744
 O         3.845983        -2.607896         0.001007
 C         3.700554         0.051895         0.614808
 O         3.493702         1.260769        -0.209488
 C         2.162806         1.300692        -0.574526
 C         2.535549        -0.538026         1.041040
 H         0.064105         1.229660         0.893485
 H        -0.731541         0.336817        -0.439183
 H        -0.413804        -0.558918         0.943721
 H         1.596338        -2.133756        -0.855116
 H         2.195811        -1.001500        -2.107508
 H         4.754491        -2.713069        -0.313979
 H         4.674118         0.048203         0.988790
 H         1.692523         2.228544        -0.229854
 H         2.073843         1.331729        -1.623376
 H         2.463114        -0.690793         2.093961
