19
Iteration:  2308
 C         0.053611         0.003213         0.208235
 C         1.542619        -0.036891        -0.004229
 C         2.011334        -1.158129        -0.879765
 C         3.255018        -1.352244         0.058870
 O         3.869613        -2.616791        -0.041104
 C         3.740846         0.118688         0.468261
 O         3.544085         1.262147        -0.316359
 C         2.102826         1.311963        -0.415879
 C         2.520900        -0.471394         1.137658
 H        -0.306707         0.760726         1.064635
 H        -0.195444         0.467582        -0.654845
 H        -0.461911        -0.912078         0.200025
 H         1.404834        -2.129709        -0.749158
 H         2.100667        -1.031585        -1.874374
 H         4.793345        -2.558562        -0.424376
 H         4.641448         0.124773         1.184011
 H         1.659774         2.117634         0.261215
 H         1.877716         1.720273        -1.439774
 H         2.277406        -0.675052         2.233301
