19
Iteration:  1689
 C        -0.033681        -0.054563         0.266460
 C         1.517385         0.021900         0.016452
 C         2.110555        -1.071767        -0.986353
 C         3.250242        -1.330665        -0.054912
 O         3.777437        -2.610241         0.204340
 C         3.814354         0.073150         0.378035
 O         3.495885         1.164911        -0.400201
 C         2.105743         1.393555        -0.339480
 C         2.624060        -0.475154         1.070069
 H        -0.299739         0.529026         1.154606
 H        -0.591242         0.335436        -0.700832
 H        -0.318382        -1.084729         0.489136
 H         1.484357        -1.872434        -1.080321
 H         2.440240        -0.694033        -1.989824
 H         4.369593        -3.015027        -0.513260
 H         4.765890         0.158280         1.004018
 H         1.985164         2.111005         0.586062
 H         1.634606         1.743175        -1.170009
 H         2.624382        -0.570364         2.111782
