19
Iteration:  4855
 C        -0.020169         0.108474         0.418380
 C         1.522236        -0.017094         0.067995
 C         2.021374        -1.069048        -0.978195
 C         3.246938        -1.290522        -0.111599
 O         4.005806        -2.461817         0.065182
 C         3.738702         0.031532         0.458056
 O         3.588723         1.156647        -0.312918
 C         2.093959         1.226082        -0.540393
 C         2.501713        -0.563046         1.167383
 H        -0.114420         0.874633         1.179887
 H        -0.582387         0.493855        -0.525271
 H        -0.525851        -0.998635         0.631400
 H         1.440365        -2.034871        -1.046183
 H         1.987222        -0.864404        -2.019861
 H         3.544475        -3.154503        -0.382811
 H         4.706358        -0.097168         0.882419
 H         1.661229         2.196447        -0.132111
 H         2.044481         1.256600        -1.579885
 H         2.217814        -0.706412         2.141955
