19
Iteration:  2911
 C        -0.003651         0.107316         0.381162
 C         1.533311        -0.019017         0.067545
 C         2.029583        -1.167634        -0.936686
 C         3.200537        -1.310814         0.037302
 O         4.039936        -2.466509        -0.034838
 C         3.781522        -0.013116         0.385399
 O         3.532958         1.203220        -0.295128
 C         2.065780         1.247998        -0.610037
 C         2.518509        -0.473244         1.122182
 H        -0.080829         0.885946         1.230109
 H        -0.625270         0.316179        -0.367009
 H        -0.308740        -0.828653         0.909631
 H         1.305071        -2.013111        -0.643551
 H         2.119282        -1.063352        -1.935392
 H         3.499184        -3.179651         0.325398
 H         4.737541        -0.039375         0.951324
 H         1.607733         2.129996        -0.147253
 H         1.838259         1.241200        -1.692977
 H         2.382166        -0.494369         2.238738
