19
Iteration:  1515
 C        -0.046684        -0.004018         0.369358
 C         1.479610         0.010609         0.014948
 C         2.092647        -1.134727        -1.001969
 C         3.191656        -1.356942        -0.023674
 O         3.920140        -2.572594         0.102507
 C         3.776939        -0.005411         0.464221
 O         3.604803         1.220409        -0.342358
 C         2.158890         1.411771        -0.407830
 C         2.499122        -0.450874         1.068432
 H        -0.225551         0.696290         1.107513
 H        -0.656750         0.216452        -0.574225
 H        -0.338868        -1.015848         0.693867
 H         1.439959        -1.939665        -1.073965
 H         2.450113        -0.832089        -2.058563
 H         3.769500        -3.071289        -0.740760
 H         4.699559        -0.057425         0.946138
 H         1.800172         2.290005         0.096649
 H         1.760540         1.528042        -1.538733
 H         2.220021        -0.627301         2.144317
