19
Iteration:  4466
 C         0.054314         0.095159         0.373803
 C         1.555456         0.026833         0.041147
 C         1.976386        -1.199652        -0.861248
 C         3.219916        -1.424128         0.021570
 O         3.976634        -2.572903         0.003335
 C         3.721025        -0.026912         0.356108
 O         3.503216         1.210564        -0.430662
 C         2.099607         1.430088        -0.438171
 C         2.512581        -0.538354         1.102833
 H        -0.097446         0.861521         1.154085
 H        -0.479192         0.343216        -0.581861
 H        -0.370512        -0.742494         0.849643
 H         1.298137        -2.013218        -0.737996
 H         2.056617        -1.000113        -1.976694
 H         4.926826        -2.224035         0.034092
 H         4.682665         0.016994         0.784142
 H         1.599765         2.234115         0.292263
 H         1.737057         1.660635        -1.422077
 H         2.434221        -0.508780         2.241284
