19
Iteration:  4666
 C        -0.031206         0.155017         0.383704
 C         1.482975        -0.048612        -0.016013
 C         2.082449        -1.176965        -0.923915
 C         3.199807        -1.321711         0.045240
 O         3.970644        -2.532845        -0.056273
 C         3.757602        -0.042410         0.433160
 O         3.511960         1.188052        -0.326933
 C         2.123491         1.305937        -0.527781
 C         2.510131        -0.532233         1.193354
 H        -0.340365         1.048205         0.976758
 H        -0.689134         0.358235        -0.439716
 H        -0.408996        -0.688416         0.936857
 H         1.400434        -2.022795        -0.895310
 H         2.222383        -0.794269        -1.971881
 H         4.795583        -2.191051        -0.352613
 H         4.696056         0.112474         0.926080
 H         1.801313         2.110624         0.156049
 H         1.929217         1.427797        -1.563959
 H         2.505196        -0.725369         2.263078
