19
Iteration:  1186
 C         0.073510         0.196428         0.416594
 C         1.463704        -0.044611        -0.022368
 C         1.984499        -1.104348        -0.985801
 C         3.202125        -1.284594        -0.059083
 O         3.988152        -2.461808         0.008466
 C         3.726665        -0.092402         0.523280
 O         3.563539         1.149538        -0.240907
 C         2.160326         1.294071        -0.568942
 C         2.390904        -0.636245         1.098164
 H         0.019084         1.176034         1.001664
 H        -0.702385         0.310360        -0.515613
 H        -0.476793        -0.630539         0.861523
 H         1.586978        -2.061056        -0.841695
 H         2.216081        -0.784915        -2.141668
 H         4.997168        -2.342793        -0.060164
 H         4.654817        -0.097433         1.074589
 H         1.720905         2.227966        -0.019303
 H         2.115211         1.333030        -1.647210
 H         2.155763        -0.883702         2.145315
