19
Iteration:  2497
 C         0.098561         0.016676         0.432440
 C         1.532818        -0.035805        -0.032034
 C         2.016383        -1.086828        -1.032134
 C         3.212226        -1.364852        -0.075330
 O         3.952547        -2.528429         0.115495
 C         3.725250         0.072357         0.458073
 O         3.495123         1.230102        -0.280841
 C         2.105502         1.310159        -0.511343
 C         2.580929        -0.533023         1.002183
 H        -0.021845         0.931288         1.126993
 H        -0.598203         0.145469        -0.344903
 H        -0.190898        -0.888146         1.051775
 H         1.236997        -1.850538        -1.154669
 H         2.378894        -0.769099        -1.999534
 H         3.248865        -3.163519         0.503041
 H         4.697380         0.016906         0.837735
 H         1.809024         2.144024         0.127233
 H         1.827457         1.532479        -1.562892
 H         2.333774        -0.673612         2.114100
