19
Iteration:  2577
 C        -0.063508         0.234301         0.307188
 C         1.417985        -0.062937         0.063083
 C         1.936577        -1.215965        -0.854223
 C         3.240758        -1.308162         0.004640
 O         4.045317        -2.464543        -0.030466
 C         3.749888        -0.029727         0.401924
 O         3.548238         1.093878        -0.385431
 C         2.112351         1.300697        -0.462436
 C         2.572086        -0.531238         1.203020
 H        -0.261625         0.875712         1.057372
 H        -0.604505         0.578969        -0.676144
 H        -0.493136        -0.757337         0.553085
 H         1.583958        -2.159632        -0.734162
 H         2.109638        -1.097500        -1.944008
 H         4.869241        -2.014232        -0.430195
 H         4.733572        -0.040427         0.979374
 H         1.814033         2.100309         0.170670
 H         1.906332         1.616596        -1.566826
 H         2.389013        -0.627695         2.246068
