19
Iteration:  1892
 C         0.094461        -0.135699         0.373197
 C         1.558124        -0.004710        -0.090703
 C         2.041972        -1.154345        -1.028744
 C         3.164393        -1.322533        -0.050724
 O         3.766769        -2.554708         0.098814
 C         3.779603         0.053681         0.404604
 O         3.556098         1.222071        -0.309171
 C         2.127548         1.421868        -0.378268
 C         2.574856        -0.472780         1.029550
 H        -0.167028         0.817111         1.083147
 H        -0.557383         0.054509        -0.443187
 H        -0.096984        -1.121001         0.925696
 H         1.189769        -1.988690        -0.927564
 H         2.317714        -0.936869        -2.032431
 H         4.552139        -2.526100         0.717832
 H         4.771277         0.094948         1.016859
 H         1.662778         2.238987         0.272366
 H         1.876281         1.731434        -1.473963
 H         2.328264        -0.475468         2.071351
