19
Iteration:  2209charge 0 multiplicity 1
 C         0.055309        -0.071355         0.292112
 C         1.574551        -0.009119         0.041492
 C         2.059744        -1.127519        -0.995457
 C         3.207610        -1.317901        -0.025774
 O         3.764860        -2.644471         0.005811
 C         3.761099         0.109645         0.483458
 O         3.549500         1.304757        -0.295459
 C         2.133757         1.339366        -0.470400
 C         2.530055        -0.478631         1.135723
 H        -0.262576         0.569545         1.232529
 H        -0.497250         0.053844        -0.532862
 H        -0.068115        -1.117779         0.511370
 H         1.340371        -2.044842        -0.828644
 H         2.125807        -0.928290        -2.016435
 H         4.712985        -2.526446        -0.099560
 H         4.593136         0.187707         1.077632
 H         1.758606         2.215611         0.024156
 H         1.975378         1.553023        -1.535980
 H         2.557939        -0.664253         2.226562
