19
Iteration:  2874
 C         0.006776        -0.126946         0.273264
 C         1.475417         0.088868         0.039289
 C         2.044867        -1.065569        -0.883759
 C         3.232377        -1.290671         0.041957
 O         3.931873        -2.530867         0.152556
 C         3.819188         0.023972         0.338634
 O         3.512308         1.113082        -0.590111
 C         2.065350         1.355041        -0.246844
 C         2.614615        -0.441593         1.091894
 H        -0.390650         0.451986         1.055403
 H        -0.495866         0.414610        -0.689901
 H        -0.305626        -1.146079         0.390946
 H         1.406009        -1.891812        -0.704793
 H         2.211719        -0.921105        -2.050577
 H         3.301685        -3.049492        -0.305852
 H         4.797890        -0.005310         0.795023
 H         2.202304         2.055765         0.636656
 H         1.673524         1.873762        -1.172046
 H         2.531686        -0.420102         2.148565
