19
Iteration:  1101charge 0 multiplicity 1
 C        -0.029912        -0.038343         0.264407
 C         1.508745        -0.019805         0.051328
 C         2.196343        -0.932419        -0.998594
 C         3.223135        -1.329858         0.001777
 O         3.749277        -2.578279         0.159058
 C         3.787541         0.067062         0.394052
 O         3.521545         1.097289        -0.419186
 C         2.153663         1.331390        -0.302455
 C         2.551124        -0.508633         1.087800
 H        -0.217857         0.585525         1.060724
 H        -0.513418         0.254666        -0.747456
 H        -0.485692        -1.043869         0.531071
 H         1.605029        -1.656725        -1.520028
 H         2.856331        -0.516622        -1.776439
 H         3.996611        -2.865779        -0.694479
 H         4.752409         0.096688         0.893207
 H         1.857511         2.040611         0.448281
 H         1.781133         1.751394        -1.244632
 H         2.478885        -0.593683         2.197132
