19
Iteration:   226charge 0 multiplicity 1
 C         0.004473         0.239057         0.272552
 C         1.489087        -0.072450         0.002312
 C         2.060705        -1.087093        -0.933716
 C         3.222431        -1.285012        -0.022776
 O         3.886847        -2.469877         0.064596
 C         3.790349        -0.031616         0.505436
 O         3.507532         1.118812        -0.337063
 C         2.096217         1.242517        -0.439772
 C         2.538621        -0.635098         1.108373
 H        -0.228621         0.844789         1.222414
 H        -0.477654         0.676805        -0.671080
 H        -0.500423        -0.623132         0.523803
 H         1.696378        -2.116406        -1.017996
 H         2.356431        -0.611896        -1.897538
 H         4.557368        -2.625431        -0.579576
 H         4.739097         0.071461         1.104975
 H         1.861250         2.142613         0.135770
 H         1.866775         1.536441        -1.595007
 H         2.528314        -0.933046         2.187858
