19
Iteration:   622charge 0 multiplicity 1
 C        -0.022060         0.222953         0.316712
 C         1.449521        -0.076599         0.034958
 C         2.124276        -1.110629        -1.005676
 C         3.271483        -1.300772        -0.064048
 O         3.861352        -2.602764         0.097128
 C         3.780243        -0.011683         0.470523
 O         3.524377         1.264658        -0.162751
 C         2.096289         1.241060        -0.563198
 C         2.579571        -0.568550         1.086990
 H        -0.299608         1.085693         1.050745
 H        -0.573631         0.332893        -0.673171
 H        -0.446128        -0.568460         0.879154
 H         1.557070        -2.056496        -1.114310
 H         2.396291        -0.675113        -2.024005
 H         3.941930        -3.014259        -0.755071
 H         4.805493         0.114871         0.876512
 H         1.748050         2.145335        -0.011342
 H         2.032319         1.389608        -1.585185
 H         2.451671        -0.901118         2.062629
