19
Iteration:   637
 C         0.019399         0.099852         0.309890
 C         1.531511         0.013379        -0.059092
 C         2.009746        -1.110458        -1.021166
 C         3.145339        -1.401991        -0.004707
 O         3.943438        -2.599310         0.099163
 C         3.760087        -0.005936         0.425137
 O         3.557548         1.245685        -0.188744
 C         2.176399         1.324426        -0.453772
 C         2.507415        -0.498295         1.110294
 H         0.013843         1.014567         0.970455
 H        -0.672586         0.305194        -0.489343
 H        -0.447137        -0.910607         0.809875
 H         1.264221        -1.995409        -1.213684
 H         2.326478        -0.727162        -1.978448
 H         4.219508        -2.802933        -0.864171
 H         4.661348        -0.134366         0.978803
 H         1.655304         2.191233        -0.050069
 H         1.960744         1.349830        -1.669499
 H         2.344466        -0.491309         2.231000
