19
Iteration:  3856charge 0 multiplicity 1
 C         0.058039        -0.195219         0.387624
 C         1.535293         0.005157         0.055205
 C         2.082185        -1.011087        -0.996734
 C         3.183760        -1.293067         0.022731
 O         3.782518        -2.580049         0.077064
 C         3.811803         0.057910         0.311423
 O         3.521721         1.117467        -0.474294
 C         2.119360         1.457986        -0.410980
 C         2.604876        -0.416006         1.125718
 H        -0.302630         0.625453         1.221691
 H        -0.663626        -0.017935        -0.426730
 H        -0.055952        -1.182343         0.728506
 H         1.376807        -1.833687        -1.003380
 H         2.499210        -0.545080        -1.972522
 H         3.772430        -3.076189         0.955622
 H         4.791170         0.132880         0.835199
 H         1.869359         2.147774         0.324145
 H         1.769389         1.660157        -1.478087
 H         2.468614        -0.583320         2.178863
