19
Iteration:  1481
 C         0.128626        -0.196870         0.298591
 C         1.613294        -0.005761         0.049373
 C         2.206233        -0.988372        -1.101456
 C         3.188974        -1.314113        -0.064069
 O         3.627264        -2.608070         0.273999
 C         3.836612         0.064896         0.418917
 O         3.480113         1.201889        -0.491510
 C         2.051071         1.439187        -0.217194
 C         2.628585        -0.464697         1.027645
 H        -0.242938         0.481683         1.044924
 H        -0.463931         0.067425        -0.646095
 H        -0.187733        -1.158492         0.626686
 H         1.538567        -1.733920        -1.419260
 H         2.705144        -0.473673        -1.994207
 H         3.491829        -3.183944        -0.474996
 H         4.819164         0.069190         0.956291
 H         1.834471         2.171679         0.532474
 H         1.670484         1.660448        -1.307440
 H         2.409286        -0.617125         2.183364
