19
Iteration:   330charge 0 multiplicity 1
 C         0.012198        -0.062623         0.451032
 C         1.529747         0.062442        -0.096700
 C         2.238502        -1.088350        -1.099803
 C         3.236910        -1.352439         0.064817
 O         3.688391        -2.664282         0.136756
 C         3.824326         0.010560         0.458840
 O         3.537405         1.258580        -0.346594
 C         2.080459         1.384916        -0.418837
 C         2.529403        -0.459754         1.022414
 H        -0.256738         0.778412         1.058454
 H        -0.701284        -0.052229        -0.309133
 H        -0.049976        -1.179542         0.798608
 H         1.628942        -1.947177        -1.519704
 H         2.693293        -0.483950        -1.905627
 H         4.260809        -2.965849        -0.555887
 H         4.751119         0.109506         0.967904
 H         1.798313         2.152501         0.466023
 H         1.804286         1.814482        -1.352218
 H         2.171135        -0.479553         2.089532
