19
Iteration:  4531
 C         0.026827        -0.048673         0.422431
 C         1.524580         0.054872         0.053213
 C         2.014379        -1.066271        -0.980534
 C         3.133015        -1.408992         0.014197
 O         4.020933        -2.511113         0.125854
 C         3.772359        -0.063010         0.366176
 O         3.501868         1.163513        -0.392990
 C         2.116531         1.419392        -0.496285
 C         2.559518        -0.451698         1.089092
 H        -0.267765         0.695007         1.189335
 H        -0.567916         0.214647        -0.480727
 H        -0.087107        -1.035776         0.869025
 H         1.172351        -1.776008        -0.981147
 H         2.163310        -0.718589        -2.043829
 H         3.860534        -3.014001        -0.726712
 H         4.762946        -0.190395         0.777587
 H         1.859652         2.297513         0.239146
 H         1.744779         1.580004        -1.454337
 H         2.371127        -0.523481         2.228061
