19
Iteration:   404charge 0 multiplicity 1
 C         0.014239         0.161473         0.233647
 C         1.526542        -0.032408         0.032480
 C         2.062556        -1.156400        -0.979169
 C         3.196855        -1.371667         0.049649
 O         3.914757        -2.588894         0.015127
 C         3.745058         0.008626         0.486374
 O         3.530907         1.164918        -0.394885
 C         2.061541         1.318704        -0.344747
 C         2.524783        -0.482243         1.117911
 H        -0.239976         0.841856         1.171432
 H        -0.455594         0.634812        -0.678326
 H        -0.385098        -0.852205         0.336089
 H         1.480584        -2.056573        -1.103186
 H         2.515244        -0.739799        -1.915612
 H         4.839665        -2.409137        -0.167977
 H         4.681953        -0.027545         1.017120
 H         1.805291         1.976665         0.447687
 H         1.889398         1.776217        -1.446496
 H         2.291200        -0.527733         2.219830
