19
Iteration:  1908
 C         0.147769         0.023882         0.363363
 C         1.545486         0.005655        -0.040337
 C         1.970065        -1.205454        -0.909910
 C         3.226642        -1.329927        -0.049953
 O         3.861403        -2.538893        -0.003121
 C         3.730023         0.004820         0.445989
 O         3.549537         1.290650        -0.225843
 C         2.137409         1.324799        -0.533471
 C         2.454527        -0.482105         1.066286
 H        -0.038045         0.757379         1.056302
 H        -0.573038         0.024419        -0.542275
 H         0.040683        -0.970479         0.730295
 H         1.431116        -2.076043        -0.716434
 H         1.948642        -1.127532        -2.089583
 H         4.636742        -2.429528         0.540256
 H         4.655760        -0.117706         0.959603
 H         1.758312         2.132682         0.092384
 H         1.912119         1.701149        -1.615137
 H         2.244127        -0.823044         2.100345
