19
Iteration:  4468
 C         0.046021         0.113034         0.348744
 C         1.562388         0.014739         0.047701
 C         1.981797        -1.234573        -0.846251
 C         3.223195        -1.421769         0.016335
 O         3.970860        -2.576242        -0.000033
 C         3.714717        -0.015267         0.362631
 O         3.490814         1.219785        -0.423793
 C         2.094213         1.432162        -0.425427
 C         2.528617        -0.538023         1.095303
 H        -0.072381         0.896009         1.193578
 H        -0.547865         0.289096        -0.513282
 H        -0.372871        -0.697204         0.801455
 H         1.321097        -1.994564        -0.744166
 H         2.074611        -0.987860        -1.953091
 H         4.952516        -2.268314        -0.042178
 H         4.728945        -0.011958         0.791281
 H         1.730731         2.234766         0.231528
 H         1.701652         1.709715        -1.453935
 H         2.421215        -0.483523         2.234427
