19
Iteration:  1540
 C         0.056393         0.156603         0.285313
 C         1.462085        -0.004023        -0.056602
 C         1.868325        -1.209602        -0.871198
 C         3.146795        -1.301137        -0.044878
 O         4.124162        -2.371608         0.010396
 C         3.686459        -0.043120         0.486876
 O         3.604605         1.124869        -0.238259
 C         2.227346         1.249997        -0.481143
 C         2.419539        -0.500737         1.122277
 H        -0.099035         0.825921         1.188301
 H        -0.534924         0.432660        -0.574749
 H        -0.215074        -0.951112         0.648681
 H         1.249007        -2.117147        -0.571710
 H         1.944874        -1.112046        -1.946241
 H         4.035589        -2.719816        -0.947761
 H         4.694808        -0.240993         0.940547
 H         1.757549         2.036009         0.043725
 H         2.017392         1.632339        -1.534325
 H         2.232053        -0.813586         2.075943
