19
Iteration:  2449charge 0 multiplicity 1
 C         0.021865        -0.222262         0.277415
 C         1.455068         0.021589         0.031337
 C         2.057513        -1.015375        -1.040227
 C         3.232296        -1.308024         0.020632
 O         3.767207        -2.601495         0.161991
 C         3.830068         0.033100         0.388737
 O         3.547835         1.112594        -0.575942
 C         2.163101         1.452340        -0.239152
 C         2.573686        -0.386594         1.112217
 H        -0.433895         0.303712         1.269414
 H        -0.497304         0.224786        -0.616465
 H        -0.192633        -1.261762         0.288697
 H         1.341602        -1.967184        -1.184004
 H         2.197167        -0.523171        -2.042658
 H         4.639169        -2.464335         0.516854
 H         4.802009         0.291946         0.943692
 H         2.161197         2.093748         0.704998
 H         1.675266         1.975068        -1.048206
 H         2.396166        -0.559142         2.129435
