19
Iteration:  2872
 C         0.007313        -0.135075         0.284152
 C         1.457661         0.092770         0.027246
 C         2.052018        -1.055713        -0.875982
 C         3.240784        -1.289427         0.035254
 O         3.922113        -2.515023         0.164632
 C         3.818654         0.022055         0.333777
 O         3.509826         1.100449        -0.597932
 C         2.074196         1.369075        -0.229319
 C         2.613880        -0.450711         1.073190
 H        -0.439504         0.462155         1.041630
 H        -0.459386         0.423146        -0.693912
 H        -0.316759        -1.188181         0.385639
 H         1.405920        -1.895785        -0.753500
 H         2.265462        -0.922576        -2.050225
 H         3.329400        -3.128615        -0.316449
 H         4.847533        -0.041999         0.782357
 H         2.205420         2.048674         0.652398
 H         1.679879         1.840900        -1.142192
 H         2.538530        -0.404110         2.203011
