19
Iteration:  2602
 C         0.080693         0.079445         0.409552
 C         1.519563        -0.058396         0.061700
 C         2.046339        -1.082931        -0.993528
 C         3.241653        -1.332711        -0.020516
 O         3.910767        -2.594952         0.075811
 C         3.743566         0.058631         0.365357
 O         3.493131         1.147161        -0.464184
 C         2.058242         1.325654        -0.370811
 C         2.544654        -0.504037         1.079225
 H        -0.118505         0.919151         1.133590
 H        -0.456887         0.311276        -0.557342
 H        -0.346498        -0.816297         0.786119
 H         1.393463        -1.962820        -1.038790
 H         2.392885        -0.866414        -1.995149
 H         4.694600        -2.280480         0.601339
 H         4.628214         0.119114         0.901990
 H         1.700287         2.171614         0.305261
 H         1.804718         1.639352        -1.418074
 H         2.164391        -0.711426         2.074892
