19
Iteration:  3737
 C        -0.021747         0.229209         0.299323
 C         1.468131        -0.107731         0.043718
 C         1.972250        -1.270628        -0.785576
 C         3.281781        -1.328125         0.038008
 O         4.090194        -2.403932        -0.172888
 C         3.698841         0.017770         0.567458
 O         3.571773         1.146661        -0.388380
 C         2.094015         1.233424        -0.515384
 C         2.492846        -0.479286         1.171411
 H        -0.081691         1.039103         1.021131
 H        -0.550809         0.705260        -0.594155
 H        -0.569488        -0.629528         0.527775
 H         1.471898        -2.249092        -0.543040
 H         2.033974        -1.046158        -1.822063
 H         3.586204        -3.150673        -0.408882
 H         4.692745        -0.068082         1.175598
 H         1.742548         2.085558         0.150486
 H         2.009395         1.442977        -1.645887
 H         2.387700        -0.354265         2.245718
