19
Iteration:  3392charge 0 multiplicity 1
 C         0.038510         0.076046         0.345558
 C         1.535862         0.023524         0.059563
 C         1.935988        -1.200708        -0.897963
 C         3.184519        -1.349221        -0.040815
 O         4.008870        -2.447683        -0.001599
 C         3.776454         0.012386         0.444098
 O         3.504973         1.226882        -0.239924
 C         2.154327         1.244547        -0.572294
 C         2.558953        -0.484087         1.074038
 H        -0.326363         0.954491         1.068755
 H        -0.513067         0.166167        -0.563961
 H        -0.198863        -0.883676         0.946268
 H         1.307154        -2.146791        -0.800948
 H         2.044540        -0.795133        -1.963406
 H         3.408330        -3.215854         0.093738
 H         4.769488        -0.039811         0.865861
 H         1.652572         2.163930        -0.206850
 H         2.097605         1.292862        -1.737486
 H         2.467010        -0.631894         2.176425
