19
Iteration:  1642charge 0 multiplicity 1
 C         0.017767        -0.248649         0.406775
 C         1.519299         0.031850        -0.062408
 C         2.099455        -1.035078        -1.150874
 C         3.102995        -1.288685        -0.050684
 O         3.754212        -2.529108         0.255945
 C         3.800712        -0.012316         0.365851
 O         3.598385         1.102940        -0.414334
 C         2.172929         1.470268        -0.286677
 C         2.530917        -0.408788         1.025976
 H        -0.290195         0.386557         1.389809
 H        -0.635131        -0.018715        -0.496461
 H        -0.076003        -1.272092         0.727976
 H         1.365279        -1.891635        -1.460313
 H         2.399411        -0.437158        -1.968017
 H         4.660069        -2.395332         0.043710
 H         4.723388        -0.102944         0.809707
 H         1.964372         2.105893         0.625320
 H         1.951686         2.024506        -1.318662
 H         2.496511        -0.492675         2.162627
