19
Iteration:   380
 C        -0.100772        -0.052057         0.204931
 C         1.467226         0.058051         0.062200
 C         1.994045        -1.035651        -0.965050
 C         3.231179        -1.285999        -0.089226
 O         3.870817        -2.494352         0.240078
 C         3.808239        -0.039574         0.371853
 O         3.623032         1.128130        -0.360435
 C         2.160508         1.384798        -0.302181
 C         2.553673        -0.556987         1.011044
 H        -0.374689         0.598570         1.135407
 H        -0.640104         0.444645        -0.714070
 H        -0.377400        -1.030874         0.298892
 H         1.406371        -1.906038        -0.831808
 H         2.083273        -0.705929        -2.039118
 H         4.603925        -2.730380        -0.429072
 H         4.706475        -0.168808         0.915499
 H         2.023042         2.103601         0.466062
 H         1.911230         1.801338        -1.405646
 H         2.523924        -1.022035         1.972357
