19
Iteration:  3380
 C        -0.045523         0.113846         0.365025
 C         1.461626        -0.061616         0.072208
 C         1.967904        -1.165321        -0.888878
 C         3.243608        -1.271100         0.003803
 O         4.002254        -2.422075        -0.093169
 C         3.806041        -0.011713         0.442555
 O         3.554187         1.210504        -0.221100
 C         2.142422         1.234342        -0.684015
 C         2.579888        -0.528529         1.238228
 H        -0.264200         1.090949         0.935610
 H        -0.538237         0.214957        -0.631354
 H        -0.648106        -0.789199         0.796890
 H         1.326401        -2.039832        -0.709366
 H         1.949342        -1.044740        -2.019440
 H         3.433404        -3.164077        -0.001330
 H         4.815624         0.095281         0.969416
 H         1.766774         2.204742        -0.401299
 H         2.038943         1.047940        -1.869996
 H         2.493659        -0.748361         2.334576
