19
Iteration:  4454charge 0 multiplicity 1
 C         0.078813         0.035117         0.460481
 C         1.483363         0.030984         0.048670
 C         1.946934        -1.068851        -0.946023
 C         3.135713        -1.340506        -0.026396
 O         4.001446        -2.528238         0.034243
 C         3.773563        -0.045959         0.358853
 O         3.557102         1.130260        -0.440701
 C         2.082844         1.310561        -0.457398
 C         2.517069        -0.474417         1.108408
 H        -0.197807         0.833559         1.095326
 H        -0.556337         0.252223        -0.479342
 H        -0.233137        -1.004536         0.701466
 H         1.204124        -1.892883        -0.801079
 H         2.171601        -0.905844        -2.023448
 H         4.803162        -2.297007         0.440201
 H         4.650165         0.007282         0.934818
 H         1.876191         2.270893         0.279756
 H         1.860274         1.576651        -1.447099
 H         2.402387        -0.646518         2.194230
