19
Iteration:  2092charge 0 multiplicity 1
 C         0.090311        -0.148413         0.328206
 C         1.562093         0.059131         0.049612
 C         2.079285        -1.069736        -1.018198
 C         3.166286        -1.328120        -0.048469
 O         3.775329        -2.522968         0.213219
 C         3.785988         0.012768         0.399796
 O         3.522200         1.175617        -0.363050
 C         2.094946         1.422765        -0.412049
 C         2.618505        -0.491446         1.055584
 H        -0.369368         0.353204         1.248383
 H        -0.639370         0.008697        -0.567558
 H         0.018286        -1.189946         0.443322
 H         1.212023        -1.745479        -1.150409
 H         2.353267        -0.650082        -1.978375
 H         4.207457        -2.867773        -0.543704
 H         4.759273         0.015214         0.730322
 H         1.653970         2.336393         0.258179
 H         1.915178         1.726184        -1.443128
 H         2.495579        -0.715620         2.113501
