19
Iteration:  4295charge 0 multiplicity 1
 C        -0.005150         0.146608         0.378838
 C         1.506356        -0.004636         0.092069
 C         1.964163        -1.151442        -0.906440
 C         3.266531        -1.293170        -0.019114
 O         3.982005        -2.495546        -0.006589
 C         3.808714        -0.013186         0.463971
 O         3.484651         1.117379        -0.372784
 C         2.096178         1.238966        -0.509298
 C         2.507788        -0.502040         1.118691
 H        -0.286425         1.002411         1.053856
 H        -0.530242         0.522004        -0.463072
 H        -0.391237        -0.793710         0.740002
 H         1.573403        -2.087843        -0.714498
 H         1.917410        -0.932916        -2.048431
 H         4.773170        -2.333414        -0.470856
 H         4.767065         0.094218         0.870365
 H         1.874293         2.204753         0.048238
 H         1.915345         1.315694        -1.583406
 H         2.321697        -0.804046         2.173277
