19
Iteration:  3489
 C         0.016007        -0.054456         0.315711
 C         1.481628        -0.003425         0.018977
 C         1.998609        -1.148646        -0.874154
 C         3.199642        -1.337077         0.024674
 O         3.929172        -2.542212         0.047982
 C         3.839844        -0.032782         0.373684
 O         3.559707         1.255108        -0.430070
 C         2.095721         1.367952        -0.416731
 C         2.562288        -0.385146         1.105964
 H        -0.284340         0.460906         1.160197
 H        -0.481108         0.334356        -0.580618
 H        -0.281590        -1.135947         0.491910
 H         1.517468        -2.051517        -0.764907
 H         2.179778        -0.983148        -1.928779
 H         3.333752        -3.244361         0.311809
 H         4.785482        -0.024772         0.802415
 H         1.900444         2.115383         0.298356
 H         1.835132         1.717567        -1.496985
 H         2.490935        -0.271873         2.196369
