19
Iteration:  1011charge 0 multiplicity 1
 C         0.094752         0.197280         0.281299
 C         1.553674         0.025192         0.060869
 C         2.042901        -1.045621        -0.928214
 C         3.284059        -1.378725        -0.014450
 O         3.915825        -2.665841        -0.052369
 C         3.736453        -0.036430         0.544821
 O         3.475843         1.203823        -0.302696
 C         2.055456         1.338162        -0.516583
 C         2.456474        -0.623856         1.157589
 H        -0.179391         0.807579         1.137741
 H        -0.391301         0.550736        -0.786401
 H        -0.467775        -0.654521         0.587904
 H         1.468225        -1.859371        -1.080113
 H         2.415207        -0.754847        -2.001800
 H         4.866425        -2.495560        -0.154520
 H         4.492494         0.091061         1.308020
 H         1.807764         2.354796        -0.114816
 H         1.796645         1.386765        -1.560865
 H         2.372861        -0.562706         2.282316
