19
Iteration:  2799charge 0 multiplicity 1
 C         0.023196         0.029484         0.462624
 C         1.537215        -0.058738        -0.000216
 C         2.036845        -1.215756        -0.940819
 C         3.200593        -1.310492        -0.058131
 O         3.916192        -2.518278         0.045729
 C         3.787289         0.107378         0.485623
 O         3.579345         1.305589        -0.309586
 C         2.098122         1.266164        -0.566401
 C         2.530937        -0.483805         1.061309
 H        -0.148362         0.747921         1.285700
 H        -0.785495         0.167765        -0.307878
 H        -0.189910        -0.918165         0.891560
 H         1.370150        -2.048681        -0.756056
 H         2.147647        -0.996683        -2.041300
 H         3.404679        -3.248767        -0.456819
 H         4.832905         0.090777         0.896594
 H         1.657655         2.146519        -0.119881
 H         2.072197         1.352667        -1.694385
 H         2.284991        -0.697812         2.156412
