19
Iteration:  2265charge 0 multiplicity 1
 C         0.020571        -0.128769         0.273847
 C         1.510947         0.001478         0.021357
 C         2.063234        -0.892373        -1.110324
 C         3.169753        -1.345488        -0.104154
 O         3.946182        -2.465602         0.360585
 C         3.751720        -0.018157         0.437204
 O         3.532098         1.072211        -0.475069
 C         2.133503         1.430638        -0.253971
 C         2.489859        -0.581174         0.969226
 H        -0.335791         0.571352         1.210652
 H        -0.519694         0.170629        -0.550174
 H        -0.249417        -1.091739         0.590740
 H         1.272736        -1.692174        -1.446245
 H         2.395370        -0.331696        -1.931685
 H         4.185060        -3.059823        -0.443788
 H         4.808533         0.001008         0.901957
 H         2.134417         2.043678         0.685215
 H         1.805863         2.077976        -1.094525
 H         2.312382        -0.797281         2.072684
