19
Iteration:  1551charge 0 multiplicity 1
 C         0.073032         0.236127         0.256613
 C         1.535806         0.014995         0.008754
 C         1.861363        -1.255690        -0.843921
 C         3.199766        -1.361026        -0.069560
 O         4.151434        -2.348898        -0.036766
 C         3.694511        -0.077106         0.552642
 O         3.553128         1.144847        -0.237228
 C         2.145170         1.274312        -0.502860
 C         2.416815        -0.543756         1.125889
 H        -0.101922         1.034980         1.061028
 H        -0.473747         0.584519        -0.595158
 H        -0.495561        -0.772764         0.597399
 H         1.102506        -2.035873        -0.503527
 H         1.784441        -1.220430        -1.934312
 H         4.306936        -2.808114        -0.858045
 H         4.744107        -0.131371         1.002729
 H         1.888678         2.154365        -0.034879
 H         1.978250         1.196360        -1.672033
 H         2.023499        -0.990586         1.955834
