19
Iteration:  3366
 C        -0.071790         0.181794         0.306507
 C         1.435479        -0.038018         0.103170
 C         1.979281        -1.236488        -0.743139
 C         3.231210        -1.283091        -0.004220
 O         4.059313        -2.409356        -0.189030
 C         3.740114         0.044567         0.530360
 O         3.569212         1.212784        -0.287748
 C         2.169006         1.149377        -0.598543
 C         2.540087        -0.513359         1.162562
 H        -0.153937         0.990156         0.914206
 H        -0.686726         0.493353        -0.677958
 H        -0.533933        -0.636165         0.842492
 H         1.511619        -2.113861        -0.598966
 H         2.130465        -1.015810        -1.760996
 H         3.464334        -3.216025        -0.113294
 H         4.822155        -0.145044         0.982457
 H         1.725522         2.125194        -0.493057
 H         2.156207         0.939995        -1.780501
 H         2.373516        -0.731123         2.193061
