19
Iteration:  3313
 C        -0.034978         0.147486         0.401519
 C         1.433642        -0.012440         0.063613
 C         1.939863        -1.195970        -0.940935
 C         3.142162        -1.300856         0.005162
 O         4.149012        -2.398565         0.058148
 C         3.751125        -0.028774         0.379101
 O         3.595464         1.133532        -0.427354
 C         2.115210         1.280171        -0.442574
 C         2.530866        -0.536659         1.073620
 H        -0.235204         0.873554         1.135181
 H        -0.623641         0.494691        -0.501444
 H        -0.551012        -0.833380         0.630513
 H         1.335908        -2.082469        -0.754860
 H         2.174454        -1.150441        -2.053827
 H         3.685801        -3.306162         0.101445
 H         4.686390         0.034460         1.026061
 H         1.968436         2.093909         0.198880
 H         1.937072         1.703501        -1.492202
 H         2.324240        -0.624355         2.098235
