19
Iteration:   497charge 0 multiplicity 1
 C         0.077044         0.023211         0.282357
 C         1.584775         0.010219        -0.013653
 C         2.067584        -1.134852        -0.987353
 C         3.202387        -1.384897         0.037109
 O         3.800159        -2.767520        -0.000526
 C         3.803569         0.011886         0.416809
 O         3.526021         1.363936        -0.269356
 C         2.077879         1.381645        -0.414503
 C         2.561194        -0.429966         1.062466
 H        -0.106743         0.857060         0.857670
 H        -0.584681         0.206503        -0.563170
 H        -0.488156        -0.891581         0.774651
 H         1.357426        -2.011143        -0.932543
 H         2.243110        -0.798394        -2.001785
 H         4.487997        -2.817763         0.708547
 H         4.760491         0.066028         0.875984
 H         1.683186         2.201423         0.248103
 H         1.807904         1.537265        -1.397007
 H         2.264832        -0.427839         2.103101
