19
Iteration:  3860charge 0 multiplicity 1
 C         0.081620        -0.176074         0.382914
 C         1.524956         0.042982         0.079689
 C         2.060809        -0.987369        -0.992742
 C         3.160133        -1.292439         0.021356
 O         3.814196        -2.560853         0.063807
 C         3.810953         0.052076         0.353886
 O         3.505674         1.099024        -0.472129
 C         2.146148         1.398222        -0.406550
 C         2.574266        -0.417249         1.077091
 H        -0.195765         0.427099         1.179438
 H        -0.555980         0.029738        -0.558006
 H        -0.127187        -1.210633         0.839348
 H         1.423667        -1.919623        -0.971236
 H         2.371625        -0.629134        -1.880444
 H         3.787599        -2.908718         0.963479
 H         4.770394         0.099575         0.770857
 H         1.941431         2.361149         0.211734
 H         1.783674         1.533713        -1.425147
 H         2.511332        -0.639927         2.163215
