19
Iteration:  2172charge 0 multiplicity 1
 C        -0.056923         0.134298         0.247893
 C         1.441486        -0.009171         0.108258
 C         1.972233        -1.212924        -0.885084
 C         3.182166        -1.328703        -0.000347
 O         4.058922        -2.422863        -0.172595
 C         3.690716        -0.039103         0.474689
 O         3.584291         1.124640        -0.272666
 C         2.205237         1.224048        -0.511948
 C         2.499835        -0.443732         1.213165
 H        -0.380459         0.798190         0.982067
 H        -0.661272         0.543374        -0.716059
 H        -0.503129        -0.861554         0.686000
 H         1.403440        -2.031785        -0.734227
 H         2.121486        -1.102455        -2.021656
 H         4.816111        -2.241775         0.330276
 H         4.727026        -0.057780         1.026355
 H         1.710804         2.126457         0.115460
 H         1.883952         1.371560        -1.645780
 H         2.514305        -0.477520         2.296335
