19
Iteration:  4300
 C         0.006207         0.167982         0.384167
 C         1.466803        -0.034076         0.087892
 C         2.001821        -1.167684        -0.922192
 C         3.229275        -1.275700        -0.008918
 O         3.993058        -2.509378        -0.037884
 C         3.813073        -0.014137         0.487105
 O         3.505724         1.102692        -0.386649
 C         2.107268         1.253421        -0.501684
 C         2.477704        -0.446596         1.129953
 H        -0.194224         0.918863         1.148799
 H        -0.615169         0.483557        -0.571286
 H        -0.425439        -0.793915         0.891669
 H         1.522998        -2.247320        -0.722039
 H         2.053614        -0.917502        -1.950067
 H         4.884383        -2.361573        -0.505180
 H         4.840157         0.111219         0.964338
 H         1.825665         2.145223         0.032692
 H         1.729671         1.329735        -1.552029
 H         2.308452        -0.768556         2.137301
