19
Iteration:  4793
 C        -0.018125        -0.029262         0.321696
 C         1.500664        -0.027718         0.019237
 C         1.980630        -1.091064        -0.945306
 C         3.204202        -1.284445        -0.007523
 O         3.950519        -2.483177        -0.008972
 C         3.783021         0.026261         0.421282
 O         3.641044         1.126493        -0.385364
 C         2.108838         1.347735        -0.363916
 C         2.531405        -0.495049         1.052026
 H        -0.370507         0.743080         1.011756
 H        -0.590951        -0.002563        -0.571898
 H        -0.385061        -0.880296         0.745486
 H         1.274115        -1.948871        -0.841398
 H         2.143258        -0.765498        -2.017981
 H         3.814105        -3.044918         0.751671
 H         4.611762         0.112036         1.090533
 H         1.797874         2.046972         0.382424
 H         1.876996         1.872787        -1.376147
 H         2.423010        -0.588746         2.113030
