19
Iteration:  2569charge 0 multiplicity 1
 C        -0.056817         0.191315         0.294500
 C         1.477220        -0.011057         0.077481
 C         1.938578        -1.271962        -0.789998
 C         3.176855        -1.360409        -0.004273
 O         4.103099        -2.431576        -0.076882
 C         3.735183         0.009656         0.429815
 O         3.565033         1.092236        -0.360619
 C         2.118876         1.291253        -0.463696
 C         2.509244        -0.484924         1.180855
 H        -0.424165         0.970401         1.075443
 H        -0.342892         0.691878        -0.704792
 H        -0.615205        -0.680812         0.485241
 H         1.289929        -2.197152        -0.549603
 H         2.031108        -1.170099        -1.884928
 H         4.783099        -2.203200        -0.807194
 H         4.686275         0.003479         0.852692
 H         1.819045         2.192347         0.199505
 H         2.145683         1.366705        -1.585658
 H         2.288195        -0.720782         2.184752
