19
Iteration:  1487
 C         0.156417        -0.149327         0.289239
 C         1.592853        -0.009619         0.019505
 C         2.180002        -0.927548        -1.061853
 C         3.235352        -1.369173        -0.048969
 O         3.666895        -2.608204         0.253943
 C         3.821049         0.061246         0.434317
 O         3.455624         1.171845        -0.449912
 C         2.039341         1.450720        -0.311956
 C         2.627041        -0.513072         1.055848
 H        -0.050661         0.690846         1.061306
 H        -0.440096         0.005105        -0.570017
 H        -0.147753        -1.224682         0.538800
 H         1.390651        -1.733529        -1.397781
 H         2.544437        -0.453889        -1.927022
 H         3.434597        -3.244727        -0.510932
 H         4.762361         0.252714         0.978972
 H         1.755962         2.216756         0.568782
 H         1.628008         1.667665        -1.222885
 H         2.472459        -0.520687         2.065686
