19
Iteration:  2867
 C        -0.010504        -0.134857         0.291641
 C         1.446987         0.054344         0.027454
 C         2.075994        -1.037022        -0.887844
 C         3.253294        -1.301460         0.002102
 O         3.889947        -2.477317         0.190578
 C         3.837246         0.023106         0.315706
 O         3.495537         1.061234        -0.608627
 C         2.125493         1.432033        -0.204610
 C         2.589981        -0.456361         1.063784
 H        -0.534412         0.494103         1.121425
 H        -0.386561         0.224704        -0.561487
 H        -0.298855        -1.190735         0.341521
 H         1.354343        -1.952503        -0.908746
 H         2.364124        -0.880534        -1.839532
 H         3.517789        -3.265171        -0.245272
 H         4.826939        -0.034352         0.710625
 H         2.072425         2.048325         0.683614
 H         1.666667         1.887001        -1.088038
 H         2.568140        -0.432719         2.130242
