19
Iteration:  3165
 C        -0.013299         0.242458         0.289164
 C         1.501201        -0.057125         0.029994
 C         1.938777        -1.248368        -0.808216
 C         3.207515        -1.318493        -0.002918
 O         4.157895        -2.344353        -0.018332
 C         3.744700         0.014318         0.427719
 O         3.546041         1.086792        -0.447971
 C         2.068454         1.254206        -0.415902
 C         2.518796        -0.574499         1.135093
 H        -0.075154         0.939569         1.184994
 H        -0.496873         0.703958        -0.462658
 H        -0.609430        -0.607217         0.673679
 H         1.210324        -2.095912        -0.564861
 H         2.059734        -1.184349        -1.805872
 H         3.780940        -3.090728        -0.549868
 H         4.665379         0.096966         1.090017
 H         1.797966         2.047769         0.236138
 H         1.810984         1.440216        -1.426648
 H         2.150439        -0.683440         2.178865
