19
Iteration:  4402
 C         0.172445        -0.094598         0.428598
 C         1.564274         0.055077        -0.042130
 C         2.059584        -1.106832        -0.924951
 C         3.230390        -1.362329        -0.012030
 O         3.762133        -2.707838         0.049719
 C         3.802968         0.071579         0.384747
 O         3.445121         1.204187        -0.505818
 C         2.056445         1.428275        -0.357791
 C         2.590007        -0.393523         1.095825
 H        -0.045686         0.581874         1.399336
 H        -0.503736         0.120184        -0.365115
 H        -0.091168        -1.065480         0.636544
 H         1.406939        -1.885088        -0.978298
 H         2.424189        -0.757059        -1.928060
 H         4.277150        -2.880424         0.805781
 H         4.762524         0.260632         0.786637
 H         1.667326         2.135403         0.257185
 H         1.795926         1.754731        -1.451884
 H         2.408018        -0.189553         2.214746
