19
Iteration:  1557
 C         0.026338         0.264331         0.276969
 C         1.538974        -0.013610         0.070744
 C         1.890211        -1.284391        -0.839132
 C         3.201884        -1.351034        -0.090991
 O         4.163928        -2.372790        -0.041122
 C         3.721604        -0.064608         0.539886
 O         3.538710         1.152127        -0.222468
 C         2.131558         1.301483        -0.560643
 C         2.439612        -0.604493         1.129253
 H        -0.078130         1.107689         0.935439
 H        -0.447881         0.659459        -0.692943
 H        -0.629681        -0.479901         0.497841
 H         1.162799        -2.004466        -0.523466
 H         1.829405        -1.211604        -1.983037
 H         4.317191        -2.828218        -0.948588
 H         4.585190        -0.099146         1.116976
 H         1.704866         2.281922        -0.060629
 H         2.057469         1.222920        -1.653640
 H         2.003880        -0.895110         2.183456
