19
Iteration:  3334charge 0 multiplicity 1
 C         0.067535         0.180476         0.300872
 C         1.504460        -0.006600         0.007040
 C         1.894414        -1.323743        -0.764266
 C         3.168075        -1.385811        -0.038165
 O         4.205510        -2.359195        -0.083641
 C         3.653025        -0.089242         0.480461
 O         3.536090         1.144479        -0.320336
 C         2.117266         1.321805        -0.497681
 C         2.471381        -0.429384         1.146486
 H         0.133343         0.916476         1.021668
 H        -0.614929         0.638313        -0.516956
 H        -0.521387        -0.641748         0.741837
 H         1.234958        -2.074250        -0.557060
 H         1.946500        -1.212821        -1.848187
 H         3.814674        -3.243940        -0.248007
 H         4.764686        -0.210492         0.707492
 H         1.707092         2.152679         0.006916
 H         2.046381         1.485784        -1.689735
 H         2.257422        -0.387073         2.187048
