19
Iteration:  2382charge 0 multiplicity 1
 C         0.052242         0.125925         0.407227
 C         1.499590        -0.055037        -0.088157
 C         1.965839        -1.238484        -0.961379
 C         3.223329        -1.326533        -0.035667
 O         4.091527        -2.397663         0.027785
 C         3.741906        -0.010689         0.445843
 O         3.507404         1.189308        -0.197549
 C         2.175670         1.357042        -0.572819
 C         2.401122        -0.543978         1.041803
 H        -0.000345         1.083484         1.040175
 H        -0.731696         0.256409        -0.454023
 H        -0.173429        -0.721992         1.082373
 H         1.413788        -2.216357        -0.735993
 H         2.048415        -1.153233        -2.148203
 H         3.483862        -3.192484         0.255230
 H         4.595328        -0.016056         1.164104
 H         1.882280         2.177498         0.126055
 H         1.987539         1.429069        -1.658136
 H         2.340529        -0.809921         2.157031
