19
Iteration:  3211charge 0 multiplicity 1
 C         0.055807        -0.111808         0.460893
 C         1.500134         0.015542         0.001153
 C         2.065221        -1.014150        -1.031029
 C         3.182420        -1.318430        -0.006469
 O         3.895466        -2.529633         0.149258
 C         3.774463         0.069766         0.382607
 O         3.536754         1.172155        -0.460210
 C         2.105865         1.330025        -0.434468
 C         2.547117        -0.472771         1.041075
 H        -0.216697         0.599068         1.173018
 H        -0.634880         0.009322        -0.414941
 H        -0.112806        -1.047587         0.926851
 H         1.453791        -1.882704        -1.123830
 H         2.274444        -0.593519        -1.979389
 H         3.497061        -3.050241         0.839217
 H         4.862469        -0.049216         0.599480
 H         1.934611         2.071484         0.279768
 H         1.763533         1.622718        -1.488306
 H         2.629452        -0.739020         2.149783
