19
Iteration:  2104charge 0 multiplicity 1
 C         0.002982        -0.067120         0.336263
 C         1.488251         0.005947        -0.008903
 C         2.025449        -0.980634        -0.990415
 C         3.179150        -1.330533        -0.027732
 O         3.881191        -2.533654         0.190255
 C         3.803617         0.000258         0.341070
 O         3.550069         1.199607        -0.351033
 C         2.116264         1.296724        -0.414938
 C         2.559677        -0.524805         1.100263
 H        -0.235738         0.636975         1.147825
 H        -0.576535         0.320524        -0.624874
 H        -0.323440        -1.037033         0.688538
 H         1.409302        -1.848256        -1.093116
 H         2.358337        -0.631524        -1.993965
 H         4.580522        -2.557039        -0.511139
 H         4.774661        -0.094510         0.851318
 H         1.847220         2.176985         0.323806
 H         1.800068         1.492897        -1.473040
 H         2.494793        -0.718842         2.193854
