19
Iteration:  2632charge 0 multiplicity 1
 C         0.089567        -0.247962         0.499393
 C         1.517500         0.001168        -0.045287
 C         2.113145        -1.025438        -1.018757
 C         3.162954        -1.326155        -0.015007
 O         3.719380        -2.613091         0.144374
 C         3.828487         0.081945         0.295288
 O         3.565991         1.220953        -0.478644
 C         2.094191         1.423682        -0.345178
 C         2.598416        -0.384846         1.020047
 H        -0.116337         0.382446         1.247601
 H        -0.755660        -0.191700        -0.345655
 H         0.001866        -1.278737         0.864916
 H         1.377754        -1.725734        -1.132936
 H         2.642268        -0.870412        -2.007552
 H         3.881228        -2.719390         1.118919
 H         4.759502         0.069708         0.879939
 H         1.800166         2.126111         0.350772
 H         1.845132         1.831507        -1.386175
 H         2.281789        -0.421902         2.019201
