19
Iteration:  1757charge 0 multiplicity 1
 C        -0.030494         0.286237         0.428312
 C         1.437642        -0.093613         0.010187
 C         1.952260        -1.344885        -0.948081
 C         3.197000        -1.351648        -0.064747
 O         4.102731        -2.440013        -0.047368
 C         3.669639         0.036425         0.566309
 O         3.548389         1.246446        -0.126324
 C         2.239077         1.158741        -0.684724
 C         2.447064        -0.504127         1.082755
 H         0.076819         1.195427         0.963860
 H        -0.692183         0.579954        -0.463448
 H        -0.589418        -0.340987         1.241039
 H         1.344374        -2.199596        -0.888838
 H         2.132211        -1.078458        -2.010118
 H         4.620872        -2.238057        -0.805086
 H         4.678016        -0.115660         1.041678
 H         1.722499         2.190572        -0.411265
 H         2.293689         1.017021        -1.704616
 H         2.188707        -0.965298         2.102716
