19
Iteration:  3567charge 0 multiplicity 1
 C        -0.001274         0.238701         0.383261
 C         1.525989        -0.039219         0.033751
 C         2.007380        -1.241738        -0.853424
 C         3.210743        -1.360816        -0.022995
 O         4.101186        -2.395824        -0.046254
 C         3.741349        -0.009054         0.451278
 O         3.515437         1.155482        -0.331010
 C         2.077596         1.233174        -0.536825
 C         2.477721        -0.542314         1.089176
 H         0.055664         1.215676         0.867728
 H        -0.657513         0.306130        -0.452717
 H        -0.339712        -0.635431         1.048787
 H         1.312576        -2.019812        -0.872749
 H         2.193868        -1.055525        -1.932118
 H         3.675964        -3.129713         0.366629
 H         4.754762        -0.067529         0.996452
 H         1.793096         2.140968        -0.013240
 H         1.913694         1.619494        -1.638091
 H         2.103683        -0.678430         2.089014
