19
Iteration:  1927charge 0 multiplicity 1
 C        -0.062897         0.119165         0.348877
 C         1.472429        -0.015884         0.023035
 C         1.959471        -1.224359        -0.891607
 C         3.212517        -1.329297        -0.037559
 O         3.994893        -2.523203        -0.112766
 C         3.761831         0.023752         0.485500
 O         3.564171         1.220042        -0.188433
 C         2.163100         1.255018        -0.586846
 C         2.520793        -0.519439         1.115181
 H        -0.120499         1.014527         1.141050
 H        -0.659689         0.452758        -0.561596
 H        -0.671713        -0.634164         0.783163
 H         1.256693        -2.135849        -0.704169
 H         2.159948        -1.141157        -2.001873
 H         4.858969        -2.273229         0.317088
 H         4.694584         0.144786         1.161794
 H         1.717479         2.215147        -0.283880
 H         2.351667         1.236493        -1.764607
 H         2.278377        -0.546446         2.209632
