19
Iteration:  1048charge 0 multiplicity 1
 C        -0.009290        -0.076516         0.317944
 C         1.502552        -0.012124        -0.044892
 C         2.013615        -1.160571        -1.127296
 C         3.158474        -1.282124        -0.105972
 O         3.769138        -2.473458         0.209617
 C         3.841198        -0.070014         0.398561
 O         3.676669         1.260923        -0.221084
 C         2.178653         1.404681        -0.341583
 C         2.515699        -0.483521         1.016155
 H        -0.148504         0.640085         1.084659
 H        -0.688832         0.089307        -0.465069
 H        -0.164595        -1.128913         0.696977
 H         1.406223        -2.145092        -1.032366
 H         2.280938        -0.916027        -2.106090
 H         4.145503        -2.848464        -0.561898
 H         4.776501        -0.175818         0.981464
 H         1.696618         1.974710         0.480259
 H         1.979654         1.918404        -1.395559
 H         2.310766        -0.643220         2.110364
