19
Iteration:   244
 C         0.032021         0.213257         0.221410
 C         1.510617        -0.009627         0.010901
 C         1.946393        -1.196254        -0.979641
 C         3.243757        -1.341600        -0.034441
 O         4.032386        -2.519155         0.057253
 C         3.709328         0.003958         0.489410
 O         3.551079         1.112048        -0.356247
 C         2.131167         1.327134        -0.310113
 C         2.466827        -0.521433         1.104729
 H        -0.155511         0.840909         1.028517
 H        -0.232689         0.770853        -0.637970
 H        -0.733722        -0.714306         0.314017
 H         1.253138        -2.059683        -0.593487
 H         1.919765        -1.176590        -2.050782
 H         4.693505        -2.447101        -0.628306
 H         4.646964        -0.061483         0.961011
 H         1.912037         2.103620         0.471483
 H         1.845736         1.585198        -1.265225
 H         2.175970        -0.842343         2.118114
