19
Iteration:  4586
 C         0.080990        -0.070868         0.382029
 C         1.517517         0.005120         0.027822
 C         2.087454        -1.014561        -0.977371
 C         3.277655        -1.311553        -0.056732
 O         3.857918        -2.572452         0.174047
 C         3.785218         0.051827         0.343340
 O         3.499345         1.143849        -0.451348
 C         2.042981         1.393201        -0.371592
 C         2.606772        -0.483498         1.035414
 H        -0.084853         0.486640         1.334589
 H        -0.589321         0.155563        -0.441779
 H        -0.159036        -1.101216         0.579270
 H         1.389277        -1.818967        -1.136646
 H         2.176908        -0.468500        -1.940250
 H         3.065916        -3.079362         0.290241
 H         4.759148         0.000112         0.886467
 H         1.793572         2.153398         0.361389
 H         1.635865         1.656773        -1.251861
 H         2.656671        -0.767064         2.113733
