19
Iteration:  2598charge 0 multiplicity 1
 C         0.043523         0.099123         0.394275
 C         1.527877        -0.048169         0.055332
 C         2.039363        -1.107225        -0.960866
 C         3.237573        -1.344942        -0.017668
 O         3.932797        -2.560452         0.060269
 C         3.747987         0.051273         0.393223
 O         3.501678         1.150472        -0.466572
 C         2.056070         1.295727        -0.368721
 C         2.526929        -0.510351         1.070221
 H        -0.084240         0.895512         1.041166
 H        -0.479148         0.452654        -0.580918
 H        -0.477396        -0.790960         0.846043
 H         1.287962        -1.860380        -0.997100
 H         2.333222        -0.830466        -2.018383
 H         4.768538        -2.326495         0.465225
 H         4.759909         0.125459         0.945980
 H         1.765223         2.049912         0.299199
 H         1.841927         1.521686        -1.444380
 H         2.315320        -0.715632         2.106742
