19
Iteration:  3474
 C        -0.007822        -0.090502         0.292387
 C         1.563134         0.086270         0.129704
 C         2.119204        -1.051362        -0.959252
 C         3.195986        -1.352630         0.031873
 O         3.917252        -2.567057         0.113826
 C         3.778064         0.052533         0.301541
 O         3.504175         1.100908        -0.498254
 C         2.059499         1.397274        -0.369950
 C         2.616857        -0.428384         1.137217
 H        -0.327579         0.384584         1.231211
 H        -0.570696         0.422245        -0.602501
 H        -0.309651        -1.101980         0.293145
 H         1.180419        -1.729192        -1.156606
 H         2.418563        -0.745951        -1.981383
 H         3.267759        -3.228681         0.546362
 H         4.838180         0.124674         0.807415
 H         1.830299         2.286887         0.305064
 H         1.644953         1.562030        -1.302102
 H         2.531183        -0.679971         2.202862
