19
Iteration:  3086
 C         0.070068         0.014466         0.473431
 C         1.526604        -0.081552        -0.028612
 C         2.065520        -1.099282        -1.066819
 C         3.225692        -1.304372        -0.057224
 O         3.880534        -2.511301         0.111906
 C         3.832757        -0.007451         0.430639
 O         3.512228         1.299758        -0.374498
 C         2.081409         1.319179        -0.451568
 C         2.526835        -0.528599         1.016106
 H        -0.069108         0.960897         1.151011
 H        -0.610663        -0.015826        -0.266259
 H        -0.114036        -0.951038         0.997439
 H         1.488900        -2.087356        -0.973359
 H         2.221720        -0.885238        -2.041354
 H         3.302404        -3.002538         0.717040
 H         4.712965        -0.108913         1.020248
 H         1.665759         2.122019         0.145977
 H         1.830207         1.565554        -1.454916
 H         2.483064        -0.759887         2.063707
