19
Iteration:   282
 C        -0.030863         0.015852         0.273731
 C         1.490288         0.006990         0.012710
 C         2.009405        -1.133166        -1.008438
 C         3.089688        -1.332181        -0.033799
 O         3.912251        -2.520690         0.098599
 C         3.781361        -0.068693         0.387517
 O         3.604124         1.141250        -0.328097
 C         2.194270         1.413588        -0.317872
 C         2.535347        -0.478113         1.113734
 H        -0.336905         0.828601         1.062727
 H        -0.562679         0.377240        -0.693964
 H        -0.366092        -0.944838         0.387446
 H         1.330367        -1.948435        -0.901914
 H         2.224221        -0.972859        -2.104234
 H         4.872646        -2.278735        -0.134293
 H         4.829364        -0.157964         0.789905
 H         1.874257         2.204811         0.378817
 H         1.836238         1.722195        -1.436168
 H         2.338565        -0.660521         2.155720
