19
Iteration:  3746charge 0 multiplicity 1
 C         0.031017         0.179176         0.321537
 C         1.508442        -0.012956         0.028458
 C         1.984564        -1.245389        -0.805389
 C         3.241121        -1.321618         0.046810
 O         4.122494        -2.418760        -0.169286
 C         3.711666         0.035634         0.516420
 O         3.558759         1.077989        -0.362698
 C         2.074608         1.237058        -0.530076
 C         2.398944        -0.456410         1.177414
 H        -0.070029         0.900719         1.304467
 H        -0.218313         0.624454        -0.598346
 H        -0.585003        -0.601905         0.628526
 H         1.296728        -2.041647        -0.490235
 H         2.361327        -1.308548        -1.879179
 H         3.605061        -3.141315        -0.436823
 H         4.670557        -0.012138         1.111436
 H         1.827276         2.055097         0.158151
 H         1.702798         1.603911        -1.659624
 H         2.252010        -0.418299         2.263529
