19
Iteration:  4665charge 0 multiplicity 1
 C        -0.037747         0.148293         0.384787
 C         1.478077        -0.046364        -0.014876
 C         2.072045        -1.181948        -0.920824
 C         3.207348        -1.312361         0.037422
 O         3.969472        -2.537343        -0.059228
 C         3.757856        -0.034116         0.430796
 O         3.519973         1.180460        -0.329410
 C         2.124437         1.305524        -0.530631
 C         2.505582        -0.529605         1.198780
 H        -0.323721         1.087238         0.986117
 H        -0.676059         0.354734        -0.442419
 H        -0.401379        -0.666377         0.913423
 H         1.438730        -2.004695        -0.891288
 H         2.235617        -0.805467        -1.971834
 H         4.840644        -2.172069        -0.317494
 H         4.700601         0.112800         0.974152
 H         1.791473         2.075627         0.150330
 H         1.908519         1.465378        -1.501063
 H         2.498991        -0.743760         2.248977
