19
Iteration:  4861
 C         0.024459         0.076057         0.391733
 C         1.453457        -0.002363         0.034920
 C         2.038614        -1.090396        -0.963692
 C         3.213042        -1.290388        -0.039865
 O         3.986455        -2.425324         0.023505
 C         3.721917         0.004608         0.504498
 O         3.593535         1.115601        -0.322968
 C         2.089748         1.267808        -0.562407
 C         2.561209        -0.558720         1.140812
 H        -0.165929         0.695189         1.315153
 H        -0.532782         0.484004        -0.415795
 H        -0.469417        -0.777136         0.633026
 H         1.493497        -2.037202        -0.834214
 H         2.083278        -0.817835        -2.108466
 H         3.576245        -3.196971        -0.379017
 H         4.734978         0.014247         1.010324
 H         1.799086         2.201502        -0.099534
 H         1.868183         1.430597        -1.709434
 H         2.250418        -0.722987         2.268152
