19
Iteration:  2817
 C         0.115409        -0.060163         0.475034
 C         1.478882         0.044503        -0.027778
 C         2.078110        -1.137671        -1.042161
 C         3.212050        -1.337796        -0.020017
 O         3.916298        -2.499159         0.201758
 C         3.749740        -0.021617         0.331060
 O         3.487750         1.188277        -0.359380
 C         2.091146         1.375078        -0.477909
 C         2.580860        -0.467023         1.058885
 H         0.064176         0.773497         1.132226
 H        -0.726299         0.116034        -0.344301
 H        -0.143844        -1.017874         0.977547
 H         1.428782        -2.007752        -1.142172
 H         2.307076        -0.712936        -2.122548
 H         3.504551        -3.145745        -0.465658
 H         4.656331        -0.003134         0.968336
 H         1.820676         2.262145         0.252260
 H         1.811608         1.757100        -1.483849
 H         2.279370        -0.594932         2.145965
