19
Iteration:  2112charge 0 multiplicity 1
 C        -0.050082         0.022706         0.327737
 C         1.471810        -0.047308         0.058258
 C         1.991669        -1.041962        -1.037540
 C         3.214544        -1.321866         0.002135
 O         3.953702        -2.532612         0.137207
 C         3.814589        -0.046719         0.390032
 O         3.570124         1.203974        -0.365686
 C         2.102904         1.304597        -0.426888
 C         2.513568        -0.520648         1.084899
 H        -0.063165         0.896561         1.126013
 H        -0.590124         0.351414        -0.536027
 H        -0.498424        -0.839094         0.714485
 H         1.524593        -2.137837        -1.146435
 H         2.242056        -0.613086        -1.980855
 H         4.790880        -2.461927        -0.330819
 H         4.687646         0.031024         0.895435
 H         1.869663         2.160640         0.335449
 H         1.743424         1.550330        -1.378707
 H         2.340186        -0.675545         2.134267
