19
Iteration:  2485
 C         0.136799        -0.047317         0.430042
 C         1.552080         0.025810        -0.036953
 C         2.060886        -1.108967        -1.127479
 C         3.146600        -1.334090        -0.058483
 O         3.926507        -2.557553         0.140834
 C         3.802303        -0.023190         0.400886
 O         3.514849         1.216213        -0.378124
 C         2.058935         1.423147        -0.387773
 C         2.489469        -0.471008         1.065809
 H        -0.067633         0.821275         1.224835
 H        -0.545099         0.031654        -0.330251
 H        -0.053786        -1.008910         0.956783
 H         1.435104        -2.058123        -1.229078
 H         2.334606        -0.735558        -2.096758
 H         3.626183        -2.997624         0.946154
 H         4.693561        -0.047576         0.926758
 H         1.623549         2.211179         0.259347
 H         1.872456         1.663337        -1.429040
 H         2.195825        -0.792847         2.085495
