19
Iteration:  3357
 C        -0.013541         0.238342         0.313266
 C         1.497309        -0.019903         0.090752
 C         1.937256        -1.303889        -0.764360
 C         3.265362        -1.317736         0.039742
 O         4.097647        -2.385963        -0.205957
 C         3.721774         0.002681         0.515311
 O         3.558823         1.194851        -0.279324
 C         2.164372         1.150859        -0.585908
 C         2.468787        -0.472958         1.148271
 H        -0.262428         1.049391         0.983311
 H        -0.603011         0.398944        -0.678453
 H        -0.500352        -0.730638         0.683937
 H         1.326709        -2.161176        -0.582159
 H         1.849741        -1.092945        -1.857146
 H         3.530812        -3.211064        -0.167641
 H         4.740642         0.184981         1.064532
 H         1.678493         2.032106        -0.237750
 H         2.033291         1.069217        -1.790145
 H         2.358043        -0.608481         2.219431
