19
Iteration:   276charge 0 multiplicity 1
 C        -0.071244         0.038491         0.248345
 C         1.509925         0.054967        -0.043084
 C         1.992079        -1.176289        -0.971590
 C         3.119509        -1.398628         0.005321
 O         3.956653        -2.497861         0.086278
 C         3.720004        -0.069880         0.337666
 O         3.634146         1.141776        -0.300602
 C         2.161873         1.419461        -0.305582
 C         2.544119        -0.461622         1.101888
 H        -0.323800         0.674250         1.047732
 H        -0.526180         0.444540        -0.606878
 H        -0.634076        -0.982127         0.482402
 H         1.169646        -1.950513        -0.873028
 H         2.263593        -1.065219        -2.030793
 H         4.864665        -2.298955        -0.197825
 H         4.686409        -0.198649         0.729036
 H         2.054380         2.278038         0.417734
 H         1.970198         1.813541        -1.217574
 H         2.444710        -0.704297         2.163189
