19
Iteration:  3060charge 0 multiplicity 1
 C         0.065759        -0.095431         0.426700
 C         1.511786         0.017555        -0.003668
 C         2.062409        -1.040434        -1.134247
 C         3.168224        -1.398307        -0.107573
 O         3.937943        -2.493053         0.312312
 C         3.827929        -0.052598         0.375544
 O         3.467335         1.190897        -0.503404
 C         2.108311         1.433579        -0.268120
 C         2.545118        -0.473390         0.967341
 H        -0.057235         0.710793         1.124764
 H        -0.847324        -0.152856        -0.409516
 H        -0.021438        -1.086395         0.863994
 H         1.250891        -1.700514        -1.324591
 H         2.446510        -0.599093        -2.178623
 H         3.299976        -3.125580         0.633374
 H         4.887221        -0.142690         0.763333
 H         1.989045         2.189620         0.560437
 H         1.678335         1.970366        -1.154428
 H         2.555460        -0.724061         2.060532
