19
Iteration:  1734
 C         0.053568         0.214579         0.340460
 C         1.490091         0.028255        -0.041195
 C         1.891957        -1.228934        -0.846173
 C         3.229583        -1.375599        -0.052566
 O         4.098700        -2.426806         0.006388
 C         3.683262        -0.022631         0.482701
 O         3.509071         1.214705        -0.141552
 C         2.192601         1.243282        -0.631066
 C         2.471668        -0.581512         1.074658
 H        -0.173492         0.934249         1.077495
 H        -0.601769         0.419412        -0.635485
 H        -0.252591        -0.779255         0.843927
 H         1.253707        -1.953970        -0.520128
 H         1.896653        -1.241397        -1.969885
 H         4.334190        -2.701176        -0.952307
 H         4.695754        -0.182037         1.095016
 H         1.514614         2.148798        -0.272566
 H         2.281539         1.242142        -1.657309
 H         2.317054        -0.623785         2.198590
