19
Iteration:  3654
 C         0.087237        -0.101191         0.449915
 C         1.479192        -0.008000        -0.036261
 C         2.136282        -1.051582        -1.085975
 C         3.246503        -1.274540         0.017214
 O         3.856202        -2.558960         0.151152
 C         3.777637         0.050344         0.383998
 O         3.507312         1.131569        -0.499569
 C         2.134938         1.391578        -0.369682
 C         2.509507        -0.474404         1.039216
 H         0.042866         0.492253         1.357625
 H        -0.793402         0.140619        -0.183721
 H        -0.104697        -1.124066         0.985270
 H         1.389556        -1.847540        -1.270792
 H         2.482973        -0.664955        -2.113748
 H         3.103042        -3.045227         0.609541
 H         4.691262         0.207741         1.072567
 H         1.841224         2.036531         0.467854
 H         1.778119         1.943116        -1.309692
 H         2.439144        -0.493916         2.124215
