19
Iteration:  4645
 C         0.022003         0.098682         0.336089
 C         1.479949        -0.052052         0.050866
 C         1.971160        -1.180342        -0.888428
 C         3.274700        -1.302321        -0.051341
 O         3.971778        -2.481118        -0.081996
 C         3.741218         0.023486         0.543812
 O         3.586440         1.112504        -0.423113
 C         2.089951         1.298679        -0.361857
 C         2.481553        -0.474999         1.024678
 H        -0.277325         0.937241         0.965563
 H        -0.571930         0.312217        -0.544596
 H        -0.406335        -0.757784         0.884085
 H         1.321773        -2.078886        -0.648726
 H         1.902997        -0.973773        -1.995092
 H         4.810774        -2.487150         0.532038
 H         4.664587         0.064996         1.059059
 H         1.954403         2.190373         0.326646
 H         1.907651         1.459391        -1.456855
 H         2.175962        -0.512328         2.060942
