19
Iteration:  4935charge 0 multiplicity 1
 C         0.072109         0.010711         0.292605
 C         1.553221        -0.030431         0.109557
 C         2.033183        -1.066773        -1.032415
 C         3.224958        -1.302949        -0.076501
 O         3.917024        -2.454063         0.170722
 C         3.822358        -0.054898         0.389184
 O         3.507739         1.205867        -0.477097
 C         2.034263         1.356892        -0.330225
 C         2.564455        -0.590573         1.086695
 H        -0.302306         0.897691         0.904868
 H        -0.357816         0.115370        -0.667149
 H        -0.505442        -0.761894         0.808527
 H         1.346491        -1.855864        -1.063073
 H         2.278276        -0.616621        -1.961366
 H         3.341115        -3.138794         0.438300
 H         4.876609        -0.121600         0.821489
 H         1.725566         2.048012         0.456292
 H         1.626172         1.736673        -1.301114
 H         2.664618        -0.997780         2.152694
