19
Iteration:  4752charge 0 multiplicity 1
 C         0.084721        -0.080457         0.315882
 C         1.554938         0.029927         0.014767
 C         2.070454        -1.000367        -1.018663
 C         3.186586        -1.405140         0.031486
 O         3.939069        -2.527306         0.107482
 C         3.784085         0.044572         0.396043
 O         3.496020         1.124620        -0.473030
 C         2.037991         1.376526        -0.326763
 C         2.525772        -0.504300         1.098930
 H        -0.078402         0.574395         1.302272
 H        -0.396967         0.411693        -0.525709
 H        -0.143964        -1.084186         0.481297
 H         1.285401        -1.588948        -1.247189
 H         2.581775        -0.532830        -1.888482
 H         3.269980        -3.318914         0.267753
 H         4.720623         0.045854         0.884739
 H         1.988906         2.158956         0.442118
 H         1.618038         1.778551        -1.278808
 H         2.398939        -0.340824         2.223477
