19
Iteration:  1330charge 0 multiplicity 1
 C         0.001379         0.034712         0.310251
 C         1.470755        -0.007282         0.055912
 C         1.959428        -1.098092        -0.919414
 C         3.206377        -1.319274        -0.047504
 O         3.886089        -2.526020        -0.033043
 C         3.773663        -0.027413         0.437756
 O         3.605688         1.210850        -0.171854
 C         2.175644         1.299435        -0.555430
 C         2.552414        -0.516425         1.107730
 H        -0.331155         0.692922         1.064007
 H        -0.617061         0.317787        -0.644695
 H        -0.515225        -0.963559         0.496982
 H         1.417695        -1.968356        -0.704787
 H         1.941873        -0.824189        -2.036139
 H         4.844620        -2.462152        -0.145516
 H         4.639428         0.011218         1.152890
 H         1.780610         2.346154        -0.192374
 H         2.067796         1.455090        -1.613246
 H         2.365750        -0.757135         2.192568
