19
Iteration:  3735
 C        -0.029838         0.232275         0.282053
 C         1.454300        -0.115100         0.046787
 C         1.978691        -1.278750        -0.777300
 C         3.278692        -1.325018         0.033338
 O         4.090382        -2.400086        -0.168478
 C         3.708381         0.006815         0.561482
 O         3.569355         1.156341        -0.387623
 C         2.111944         1.233257        -0.499402
 C         2.508362        -0.480485         1.176597
 H        -0.098817         1.129062         1.062313
 H        -0.580264         0.662913        -0.524304
 H        -0.565166        -0.636095         0.515791
 H         1.490355        -2.248400        -0.612146
 H         1.935784        -1.013715        -1.875203
 H         3.543722        -3.179612        -0.401122
 H         4.649802        -0.019624         1.151942
 H         1.717674         2.080500         0.093844
 H         2.005615         1.420042        -1.700115
 H         2.368254        -0.376819         2.258881
