19
Iteration:  4807
 C         0.109628         0.027971         0.314659
 C         1.508113         0.013656        -0.020599
 C         1.970423        -1.235189        -0.917412
 C         3.185635        -1.348496        -0.053966
 O         3.982297        -2.484996        -0.019209
 C         3.750202        -0.024798         0.425070
 O         3.534071         1.254598        -0.321333
 C         2.158304         1.366644        -0.365859
 C         2.494486        -0.455001         1.062325
 H        -0.127699         0.990204         0.928195
 H        -0.557725         0.022879        -0.578146
 H        -0.164658        -0.910199         0.815719
 H         1.313010        -2.100269        -0.886615
 H         2.043194        -1.203065        -2.056408
 H         3.597323        -3.048339         0.694464
 H         4.753759        -0.097884         0.927182
 H         1.886209         2.107678         0.415007
 H         1.783895         1.703369        -1.370762
 H         2.234239        -0.713461         2.179832
