19
Iteration:  3496charge 0 multiplicity 1
 C         0.019084        -0.040203         0.346090
 C         1.505481        -0.011198        -0.050400
 C         1.941206        -1.207868        -0.818849
 C         3.237329        -1.359500        -0.011021
 O         3.936558        -2.493313         0.029069
 C         3.790830        -0.007043         0.407080
 O         3.577809         1.253074        -0.393349
 C         2.145090         1.353866        -0.450127
 C         2.556313        -0.398645         1.097119
 H        -0.215388         0.628887         1.206872
 H        -0.548448         0.269169        -0.647331
 H        -0.261923        -1.046126         0.542073
 H         1.304133        -2.204063        -0.862664
 H         2.139102        -1.042385        -1.900651
 H         3.274729        -3.128448         0.216330
 H         4.844918         0.127958         0.858530
 H         1.754746         2.123273         0.323486
 H         1.846214         1.654416        -1.392875
 H         2.434290        -0.292310         2.199746
