19
Iteration:  2005
 C        -0.035533         0.003904         0.340827
 C         1.512583         0.001908         0.023146
 C         1.981541        -1.110076        -1.033254
 C         3.211740        -1.367358        -0.021258
 O         3.936217        -2.530161         0.138766
 C         3.788706        -0.007783         0.402117
 O         3.553724         1.155747        -0.359037
 C         2.130121         1.380969        -0.366410
 C         2.533320        -0.483157         1.067511
 H        -0.327195         0.835227         1.034351
 H        -0.605883         0.315735        -0.649710
 H        -0.417447        -0.948987         0.604868
 H         1.343780        -1.998425        -0.977337
 H         2.123588        -0.854084        -2.097085
 H         4.801778        -2.325446        -0.202843
 H         4.690977        -0.069578         0.879181
 H         1.775242         2.186306         0.234058
 H         1.932517         1.769934        -1.392487
 H         2.510880        -0.751037         2.102147
