19
Iteration:  1265charge 0 multiplicity 1
 C         0.010710        -0.172187         0.280880
 C         1.548592         0.047388         0.021957
 C         2.040450        -0.927573        -1.135695
 C         3.204400        -1.347986        -0.120631
 O         3.809698        -2.524785         0.359982
 C         3.772522        -0.042624         0.353836
 O         3.575963         1.127961        -0.437445
 C         2.146909         1.510780        -0.211482
 C         2.538515        -0.531123         1.018479
 H        -0.345029         0.367490         1.126586
 H        -0.540960         0.118931        -0.736063
 H        -0.241695        -1.300661         0.556262
 H         1.295630        -1.721428        -1.270130
 H         2.287378        -0.498684        -2.210070
 H         4.336603        -3.023217        -0.368847
 H         4.769627        -0.122770         0.844759
 H         2.123329         2.216212         0.723696
 H         1.673662         2.095324        -0.918998
 H         2.461212        -1.025130         1.967889
