19
Iteration:  4998charge 0 multiplicity 1
 C         0.050416        -0.073781         0.397809
 C         1.488950         0.059774         0.007102
 C         1.985295        -1.048217        -0.949766
 C         3.152014        -1.290626        -0.021594
 O         4.002512        -2.420884         0.013766
 C         3.773430        -0.003136         0.484087
 O         3.577209         1.111095        -0.369190
 C         2.142201         1.258473        -0.511312
 C         2.492658        -0.457208         1.132407
 H        -0.189195         0.592601         1.219686
 H        -0.395860         0.157744        -0.586487
 H        -0.116477        -1.245187         0.614819
 H         1.229056        -1.889813        -1.057371
 H         1.992984        -0.796121        -2.002522
 H         3.359229        -3.113971         0.195807
 H         4.814417        -0.125938         0.899463
 H         1.783080         2.135309         0.145145
 H         2.022215         1.610609        -1.467089
 H         2.350690        -0.511590         2.216991
