19
Iteration:  3836charge 0 multiplicity 1
 C         0.081764        -0.175563         0.419467
 C         1.504479         0.042375        -0.027853
 C         2.143033        -1.082801        -1.004584
 C         3.188390        -1.360216         0.011292
 O         3.745285        -2.686217         0.119256
 C         3.851142         0.053440         0.377004
 O         3.515494         1.305725        -0.532770
 C         2.071816         1.400245        -0.298433
 C         2.606679        -0.387781         1.005848
 H        -0.232737         0.633398         1.165595
 H        -0.576158        -0.060965        -0.512213
 H        -0.060120        -1.119365         0.906517
 H         1.571938        -2.048439        -1.104411
 H         2.603730        -0.672121        -1.802677
 H         3.369348        -2.933783         0.942221
 H         4.866542         0.048358         0.749845
 H         1.936524         2.017645         0.571906
 H         1.561638         1.859748        -1.240515
 H         2.554459        -0.317849         2.091455
