19
Iteration:   340
 C         0.087772        -0.095022         0.373690
 C         1.503740        -0.029892        -0.130923
 C         2.174411        -1.045697        -1.065675
 C         3.139422        -1.390173        -0.010085
 O         3.745414        -2.634997         0.208852
 C         3.781912         0.030699         0.379481
 O         3.596082         1.260203        -0.320719
 C         2.108168         1.409833        -0.355480
 C         2.526234        -0.416728         1.032646
 H        -0.107080         0.612098         1.223620
 H        -0.616235        -0.025351        -0.423649
 H        -0.045931        -1.071163         0.976316
 H         1.454902        -1.807457        -1.412289
 H         2.714731        -0.610058        -1.954098
 H         4.034519        -2.854404        -0.655417
 H         4.657600        -0.009937         0.961271
 H         1.671337         1.990024         0.536887
 H         1.765386         1.857980        -1.311013
 H         2.281873        -0.447654         2.125240
