19
Iteration:  1153charge 0 multiplicity 1
 C         0.041726         0.088034         0.310040
 C         1.486657        -0.009567        -0.072924
 C         1.845353        -1.187696        -0.956120
 C         3.142542        -1.391331        -0.040864
 O         4.015658        -2.524991         0.050725
 C         3.758158        -0.100273         0.391730
 O         3.645227         1.263064        -0.179245
 C         2.176203         1.400465        -0.461027
 C         2.459491        -0.517866         1.068867
 H        -0.238655         0.799463         1.167269
 H        -0.580872         0.535654        -0.612548
 H        -0.311601        -0.867748         0.680254
 H         1.258361        -2.053051        -0.804481
 H         1.978550        -1.227263        -2.161469
 H         4.902619        -2.157066         0.062517
 H         4.719038        -0.227990         0.904035
 H         1.685365         2.198157         0.203942
 H         1.976512         1.642481        -1.481056
 H         2.255806        -0.640279         2.181519
