19
Iteration:  3194
 C         0.007312         0.080376         0.418393
 C         1.510731        -0.020233         0.016282
 C         2.062952        -1.144545        -0.981451
 C         3.201601        -1.363411        -0.015393
 O         4.057365        -2.514539         0.084801
 C         3.796911        -0.032451         0.359524
 O         3.494200         1.153808        -0.448312
 C         2.025533         1.351450        -0.419332
 C         2.552091        -0.469102         1.098998
 H        -0.076880         0.922694         1.218674
 H        -0.715849         0.353304        -0.419968
 H        -0.422716        -0.817223         0.966899
 H         1.322718        -1.970238        -1.146136
 H         2.550306        -0.678717        -1.941437
 H         3.542675        -3.249702         0.370118
 H         4.571280         0.156658         1.034315
 H         1.666311         2.181978         0.313335
 H         1.750518         1.614813        -1.442950
 H         2.248750        -0.376606         2.089287
