19
Iteration:  1561
 C         0.001979         0.299433         0.273035
 C         1.497768        -0.035526         0.087232
 C         1.909759        -1.283444        -0.844505
 C         3.210078        -1.345063        -0.089201
 O         4.169759        -2.401311        -0.046168
 C         3.712925        -0.046358         0.512870
 O         3.536304         1.161954        -0.207091
 C         2.140888         1.305787        -0.560692
 C         2.457292        -0.643370         1.148146
 H        -0.081347         1.151397         0.928992
 H        -0.318608         0.678294        -0.702393
 H        -0.784194        -0.499930         0.573673
 H         1.245500        -2.085424        -0.526835
 H         1.915871        -1.178177        -1.970759
 H         4.235722        -2.742875        -0.911489
 H         4.591586        -0.095978         1.197041
 H         1.641616         2.176523        -0.233122
 H         2.039920         1.335326        -1.789685
 H         2.196960        -0.733927         2.132480
