19
Iteration:  3467
 C         0.020607        -0.068584         0.310623
 C         1.534821         0.060137         0.095420
 C         2.078857        -0.990354        -0.969326
 C         3.214678        -1.378966         0.003363
 O         3.907538        -2.538215         0.152931
 C         3.787980         0.021779         0.373843
 O         3.453826         1.085363        -0.559111
 C         2.072354         1.411295        -0.337997
 C         2.631907        -0.484287         1.129680
 H        -0.338461         0.322982         1.218430
 H        -0.405311         0.421705        -0.573371
 H        -0.232341        -1.178641         0.292352
 H         1.422921        -1.693452        -1.298125
 H         2.592140        -0.575533        -1.837465
 H         3.235983        -3.119293         0.614099
 H         4.756107         0.258217         0.674019
 H         2.002361         2.254014         0.291414
 H         1.636339         1.581684        -1.419208
 H         2.593082        -0.685494         2.225095
