19
Iteration:  1096
 C        -0.006060        -0.060593         0.272802
 C         1.520419         0.012645         0.033181
 C         2.191794        -0.923220        -1.049205
 C         3.203515        -1.332602         0.006280
 O         3.775946        -2.586064         0.194024
 C         3.750284         0.020305         0.390445
 O         3.519672         1.097666        -0.422137
 C         2.132436         1.373699        -0.286745
 C         2.550527        -0.501000         1.079081
 H        -0.243138         0.686188         1.158486
 H        -0.483248         0.147303        -0.706182
 H        -0.316299        -1.070659         0.452523
 H         1.496993        -1.710136        -1.458935
 H         2.924099        -0.494176        -1.845157
 H         3.940247        -2.975135        -0.727112
 H         4.700828         0.068638         0.921463
 H         1.949085         2.125040         0.557200
 H         1.764432         1.787583        -1.246151
 H         2.553036        -0.631259         2.158369
