19
Iteration:   125
 C         0.084912         0.058533         0.250896
 C         1.545023         0.035679         0.079531
 C         2.195505        -1.006034        -1.017432
 C         3.199014        -1.374059         0.001350
 O         3.839148        -2.665895         0.219929
 C         3.761053        -0.027236         0.430564
 O         3.445211         1.154889        -0.508809
 C         2.029920         1.437236        -0.296538
 C         2.546738        -0.535982         1.096661
 H        -0.290529         0.702398         1.026834
 H        -0.348498         0.413030        -0.671453
 H        -0.359888        -1.017884         0.359949
 H         1.478034        -1.878160        -1.392094
 H         2.555423        -0.447891        -1.811237
 H         4.377350        -2.701217        -0.578542
 H         4.747379         0.040660         0.881092
 H         1.796621         2.194857         0.460850
 H         1.773821         1.737674        -1.382169
 H         2.505643        -0.738145         2.153863
