19
Iteration:  3079
 C         0.078686        -0.005285         0.509422
 C         1.551838        -0.050802        -0.068513
 C         2.042839        -1.065105        -1.074637
 C         3.242622        -1.294838        -0.081857
 O         3.880484        -2.508178         0.195652
 C         3.796672         0.019263         0.333861
 O         3.519494         1.220584        -0.362534
 C         2.054897         1.337458        -0.402598
 C         2.553194        -0.539091         1.003760
 H        -0.104054         0.850091         1.092581
 H        -0.640455        -0.074631        -0.409736
 H        -0.162620        -0.941629         1.035723
 H         1.582097        -2.049457        -1.102234
 H         2.342772        -0.759171        -2.152420
 H         3.262128        -2.988898         0.705255
 H         4.700508        -0.090665         0.931861
 H         1.672825         2.087569         0.335478
 H         1.873616         1.750424        -1.460217
 H         2.366827        -0.801813         2.014084
