19
Iteration:  2160charge 0 multiplicity 1
 C        -0.008977         0.214126         0.320771
 C         1.482928        -0.075612         0.021906
 C         1.928912        -1.302437        -0.850628
 C         3.197253        -1.361128        -0.000280
 O         4.119825        -2.404577        -0.174324
 C         3.667143        -0.005745         0.508337
 O         3.602354         1.144264        -0.342254
 C         2.130886         1.250538        -0.426758
 C         2.411401        -0.492494         1.157486
 H        -0.090705         1.062793         0.922312
 H        -0.364782         0.466661        -0.800193
 H        -0.663831        -0.667510         0.600554
 H         1.315873        -2.134005        -0.821734
 H         2.198420        -1.003796        -1.920693
 H         4.948606        -2.208909         0.368343
 H         4.663995        -0.091878         1.131172
 H         1.872124         2.168323         0.276641
 H         1.894237         1.520008        -1.532226
 H         2.096805        -0.485340         2.223219
