19
Iteration:  1494charge 0 multiplicity 1
 C         0.155487        -0.092889         0.299230
 C         1.567510         0.026955        -0.018502
 C         2.132392        -0.905187        -1.029557
 C         3.270533        -1.369742         0.000709
 O         3.741235        -2.648483         0.219276
 C         3.802696         0.060815         0.410226
 O         3.450454         1.163117        -0.392238
 C         2.044987         1.403228        -0.382584
 C         2.588973        -0.541954         1.077781
 H        -0.081645         0.583799         1.064938
 H        -0.471926         0.120636        -0.644182
 H        -0.044799        -1.144136         0.702045
 H         1.443314        -1.662339        -1.227370
 H         2.439189        -0.388078        -1.999158
 H         3.465451        -3.237365        -0.537281
 H         4.673932         0.287688         0.927614
 H         1.810865         2.095595         0.324277
 H         1.596118         1.923823        -1.353426
 H         2.487723        -0.598961         2.186617
