19
Iteration:  4799charge 0 multiplicity 1
 C         0.033501        -0.014933         0.318789
 C         1.513306        -0.002278        -0.002748
 C         1.957372        -1.150497        -0.940235
 C         3.161637        -1.340380        -0.037734
 O         3.962076        -2.480136        -0.011622
 C         3.775456         0.019299         0.406156
 O         3.608668         1.187288        -0.359098
 C         2.117217         1.346610        -0.368853
 C         2.507650        -0.454128         1.043675
 H        -0.245110         0.868128         0.943527
 H        -0.430083         0.154938        -0.712725
 H        -0.187663        -1.013592         0.965281
 H         1.530383        -2.153303        -0.647418
 H         2.101171        -0.828559        -1.946586
 H         3.798318        -3.073158         0.708621
 H         4.523225        -0.016479         1.238852
 H         1.842943         2.049100         0.490387
 H         1.898534         1.762207        -1.304730
 H         2.385245        -0.709001         2.112165
