19
Iteration:  3670
 C         0.007388        -0.069356         0.503841
 C         1.508236         0.014479        -0.106783
 C         2.069929        -1.165252        -1.018896
 C         3.190124        -1.370283        -0.087406
 O         3.907062        -2.489034         0.111816
 C         3.799377         0.009849         0.415589
 O         3.587931         1.208883        -0.383019
 C         2.080447         1.409836        -0.405812
 C         2.529801        -0.440000         1.000527
 H        -0.144341         0.844926         1.229744
 H        -0.658403         0.033759        -0.354278
 H        -0.115994        -0.999870         0.937556
 H         1.529881        -2.108812        -0.864136
 H         2.325116        -0.815360        -1.977239
 H         3.424709        -3.143293         0.736305
 H         4.720617        -0.108896         0.906951
 H         1.860338         2.083216         0.458525
 H         1.821090         1.781952        -1.455686
 H         2.236420        -0.557083         2.055935
