19
Iteration:  2649charge 0 multiplicity 1
 C         0.168731        -0.362986         0.430311
 C         1.540872         0.077004         0.040404
 C         2.018005        -1.046075        -1.081143
 C         3.223101        -1.285090         0.025332
 O         3.662970        -2.580947         0.156657
 C         3.822570         0.052224         0.378238
 O         3.574528         1.242257        -0.509976
 C         2.123874         1.404312        -0.433255
 C         2.594353        -0.360009         1.055145
 H        -0.287366         0.228102         1.401374
 H        -0.502092        -0.248715        -0.333779
 H         0.238603        -1.460264         0.702934
 H         1.339635        -2.017932        -1.257926
 H         2.152255        -0.494185        -2.005573
 H         3.316785        -2.830245         1.068019
 H         4.908616         0.068297         0.708320
 H         1.872418         2.193698         0.470306
 H         1.779088         1.903836        -1.312417
 H         2.620023        -0.476542         2.177819
