19
Iteration:  2770
 C         0.021797         0.161637         0.314141
 C         1.519900        -0.012604         0.117509
 C         1.966347        -1.268090        -0.805885
 C         3.200981        -1.347851        -0.072500
 O         4.070889        -2.418647        -0.138942
 C         3.738261         0.007122         0.449903
 O         3.498226         1.223514        -0.200886
 C         2.132017         1.220757        -0.637852
 C         2.525137        -0.463517         1.175965
 H        -0.196554         0.935446         1.203850
 H        -0.543472         0.392853        -0.525292
 H        -0.375291        -0.873084         0.600242
 H         1.170203        -2.028269        -0.363686
 H         1.886933        -1.201386        -1.867530
 H         3.600110        -3.256082         0.051066
 H         4.748373        -0.076547         0.769983
 H         1.688088         2.213313        -0.480098
 H         2.227374         1.158230        -1.690494
 H         2.580668        -0.509321         2.202457
