19
Iteration:  2358charge 0 multiplicity 1
 C         0.045256         0.166552         0.407691
 C         1.503281        -0.037258        -0.066109
 C         1.883232        -1.227720        -0.951276
 C         3.154873        -1.393905        -0.087351
 O         4.117667        -2.375677        -0.037663
 C         3.706673        -0.008860         0.520851
 O         3.580806         1.271575        -0.162355
 C         2.187119         1.218424        -0.575822
 C         2.420269        -0.555517         1.075809
 H        -0.064486         1.023953         0.950287
 H        -0.768704         0.252640        -0.531311
 H        -0.183626        -0.742212         1.096380
 H         1.247950        -2.079563        -0.959997
 H         2.092893        -0.877295        -2.128384
 H         4.266135        -2.616656         0.850835
 H         4.642930        -0.247346         0.863000
 H         1.786165         2.194167        -0.294646
 H         2.125891         0.893624        -1.659660
 H         2.015670        -0.873646         2.086363
