19
Iteration:  1115
 C        -0.032957         0.028489         0.230176
 C         1.499198        -0.063994         0.043728
 C         2.145689        -1.004204        -1.013645
 C         3.266232        -1.278021         0.058706
 O         3.726296        -2.607577         0.068343
 C         3.884989         0.026477         0.504873
 O         3.556646         1.177294        -0.431974
 C         2.064593         1.304359        -0.355194
 C         2.566681        -0.510182         1.156220
 H        -0.230114         0.704112         1.052745
 H        -0.485326         0.411890        -0.599826
 H        -0.507041        -0.982746         0.400375
 H         1.619602        -2.042086        -1.107358
 H         2.291278        -0.481520        -1.868067
 H         4.392318        -2.690804        -0.709185
 H         4.825987         0.128757         1.031036
 H         1.891212         2.096520         0.376130
 H         1.716496         1.600601        -1.446273
 H         2.359033        -0.705350         2.152782
