19
Iteration:  3718
 C        -0.063927         0.199262         0.285111
 C         1.480727        -0.014357         0.114342
 C         1.929586        -1.225522        -0.856386
 C         3.221604        -1.309005        -0.024842
 O         4.102919        -2.410521        -0.078947
 C         3.809421         0.003840         0.377622
 O         3.539406         1.168159        -0.272592
 C         2.121116         1.201388        -0.527791
 C         2.504609        -0.494862         1.200194
 H        -0.229551         1.001819         0.909379
 H        -0.446434         0.444429        -0.787561
 H        -0.611684        -0.706667         0.737734
 H         1.305776        -2.106140        -0.560200
 H         2.188974        -1.098766        -1.916371
 H         3.581000        -3.211874        -0.080102
 H         4.846066        -0.029555         0.846222
 H         1.849894         2.179717        -0.064200
 H         1.937620         1.169135        -1.522777
 H         2.409796        -0.891421         2.202910
