19
Iteration:  1480
 C         0.121577        -0.205941         0.296357
 C         1.612418        -0.002206         0.050848
 C         2.212418        -0.991734        -1.108987
 C         3.184911        -1.306386        -0.061107
 O         3.623083        -2.607437         0.278190
 C         3.837325         0.065454         0.410906
 O         3.485360         1.207136        -0.494535
 C         2.055183         1.428753        -0.214446
 C         2.626000        -0.458241         1.028915
 H        -0.287597         0.466098         1.071842
 H        -0.443263         0.070532        -0.629946
 H        -0.180773        -1.134236         0.641138
 H         1.528228        -1.772576        -1.428925
 H         2.709583        -0.489464        -1.983157
 H         3.501163        -3.196264        -0.503450
 H         4.845135         0.044284         0.954304
 H         1.836582         2.211069         0.570537
 H         1.682906         1.681729        -1.273091
 H         2.407927        -0.636772         2.175052
