19
Iteration:   832
 C         0.006362         0.119245         0.200295
 C         1.511312         0.048164         0.030524
 C         2.028890        -1.075732        -0.963143
 C         3.307886        -1.371160        -0.047404
 O         3.887998        -2.570161         0.130462
 C         3.774340        -0.008251         0.485929
 O         3.561652         1.127836        -0.398652
 C         2.045279         1.371649        -0.345796
 C         2.504770        -0.597935         1.067041
 H        -0.261192         0.771219         1.196833
 H        -0.321989         0.780545        -0.596158
 H        -0.482350        -0.913945         0.351765
 H         1.455789        -2.083581        -0.986189
 H         2.208238        -0.718539        -1.974426
 H         4.634841        -2.726171        -0.543197
 H         4.619486         0.189133         1.147103
 H         1.833082         2.089469         0.598889
 H         1.716567         1.800582        -1.249406
 H         2.393720        -0.756271         2.174632
