19
Iteration:  4677
 C         0.028200         0.141677         0.360476
 C         1.516352         0.002612         0.045138
 C         2.052934        -1.131134        -0.943919
 C         3.152075        -1.449846         0.046351
 O         3.977134        -2.495402         0.004810
 C         3.747425        -0.026470         0.445572
 O         3.479396         1.220867        -0.285303
 C         2.086430         1.296377        -0.509322
 C         2.562659        -0.542293         1.110299
 H        -0.045305         0.972203         1.104978
 H        -0.554043         0.183065        -0.538259
 H        -0.316851        -0.756024         0.846501
 H         1.379124        -1.981772        -1.034459
 H         2.380772        -0.848887        -1.987176
 H         4.540614        -2.406532        -0.740198
 H         4.770013        -0.131373         0.729528
 H         1.658570         2.270686        -0.245709
 H         1.925027         1.289057        -1.515396
 H         2.339477        -0.497082         2.180176
