19
Iteration:  1650charge 0 multiplicity 1
 C         0.069024        -0.221605         0.359746
 C         1.504317         0.044147        -0.018474
 C         2.128790        -0.976142        -1.130845
 C         3.137554        -1.332232        -0.036073
 O         3.723143        -2.505023         0.269153
 C         3.731685        -0.028299         0.324677
 O         3.556398         1.110625        -0.493808
 C         2.176598         1.430083        -0.233544
 C         2.543723        -0.437611         1.055353
 H        -0.126037         0.394500         1.275177
 H        -0.728773        -0.130185        -0.297185
 H         0.039595        -1.336899         0.626808
 H         1.439323        -1.783726        -1.599382
 H         2.719780        -0.496140        -1.943342
 H         4.645047        -2.447736         0.132651
 H         4.722006         0.013387         0.885815
 H         2.111453         2.004267         0.663887
 H         1.943849         2.092432        -1.225622
 H         2.385373        -0.547220         2.180314
