19
Iteration:  4267
 C         0.027394         0.054683         0.333159
 C         1.531595        -0.009173         0.098768
 C         1.861048        -1.224354        -0.948360
 C         3.171239        -1.387119        -0.088573
 O         3.961855        -2.528805         0.184211
 C         3.815769        -0.018313         0.291932
 O         3.544582         1.335291        -0.298899
 C         2.107671         1.345080        -0.438183
 C         2.598044        -0.481608         1.079562
 H        -0.170130         0.723474         1.127791
 H        -0.581820         0.496338        -0.565990
 H        -0.364383        -1.038739         0.484957
 H         1.258444        -2.267331        -0.885942
 H         1.913654        -0.994528        -1.964033
 H         4.476307        -2.628261        -0.616033
 H         4.894213        -0.128622         0.618589
 H         1.805633         2.226929         0.107564
 H         1.840178         1.466414        -1.547399
 H         2.610082        -0.908621         2.105121
