19
Iteration:  2574
 C        -0.062082         0.227504         0.291793
 C         1.432118        -0.051835         0.067647
 C         1.937372        -1.223172        -0.834202
 C         3.223422        -1.322918        -0.001403
 O         4.067785        -2.455272        -0.047208
 C         3.739152        -0.013005         0.399286
 O         3.555043         1.086671        -0.375598
 C         2.109181         1.306523        -0.467336
 C         2.558335        -0.516024         1.198802
 H        -0.378730         0.965168         1.116064
 H        -0.474493         0.597733        -0.611633
 H        -0.533729        -0.787028         0.546841
 H         1.474449        -2.296798        -0.657144
 H         2.104027        -1.150105        -1.929474
 H         4.789873        -2.052493        -0.536487
 H         4.740875        -0.020095         0.960039
 H         1.822816         2.112088         0.195457
 H         2.067576         1.508840        -1.528030
 H         2.310456        -0.674863         2.311860
