19
Iteration:  1468charge 0 multiplicity 1
 C         0.039970        -0.258346         0.316503
 C         1.504629         0.037198         0.011338
 C         2.214269        -1.002683        -1.143208
 C         3.197942        -1.287296         0.021355
 O         3.593976        -2.597493         0.300990
 C         3.854645         0.052143         0.281218
 O         3.561835         1.241307        -0.456198
 C         2.131789         1.397733        -0.253117
 C         2.593193        -0.426302         1.080725
 H        -0.385714         0.381640         1.141946
 H        -0.511640        -0.109161        -0.608161
 H        -0.000560        -1.284865         0.472352
 H         1.541221        -1.902886        -1.324928
 H         2.598844        -0.583883        -2.074341
 H         3.817912        -3.000749        -0.604581
 H         4.934570         0.037459         0.690616
 H         2.062976         1.921696         0.808054
 H         1.675666         2.100839        -0.976976
 H         2.465945        -0.810348         2.144592
