19
Iteration:   120
 C         0.101433         0.082835         0.260662
 C         1.547214         0.008419         0.069135
 C         2.153954        -1.065661        -1.026785
 C         3.198170        -1.392427         0.027894
 O         3.851025        -2.649797         0.172131
 C         3.782892         0.013189         0.445231
 O         3.444522         1.146876        -0.489924
 C         2.035861         1.413995        -0.343253
 C         2.498196        -0.512912         1.146410
 H        -0.258546         0.815526         1.050512
 H        -0.347286         0.465414        -0.695542
 H        -0.278561        -0.897978         0.267427
 H         1.673810        -1.888607        -1.392869
 H         2.506191        -0.451540        -1.964561
 H         4.424309        -2.662562        -0.631735
 H         4.774004        -0.048017         1.001249
 H         1.780729         2.147739         0.457782
 H         1.709722         1.869577        -1.237702
 H         2.603027        -0.687590         2.243215
