19
Iteration:  2010charge 0 multiplicity 1
 C         0.009211        -0.003533         0.327927
 C         1.502809         0.022688         0.015871
 C         1.982732        -1.081308        -1.021072
 C         3.209899        -1.344742        -0.042977
 O         3.897033        -2.546144         0.174277
 C         3.796750        -0.002894         0.400511
 O         3.530328         1.154762        -0.384024
 C         2.103936         1.386163        -0.364387
 C         2.554372        -0.523421         1.053173
 H        -0.309993         0.713438         1.080923
 H        -0.409302         0.209987        -0.604835
 H        -0.291156        -1.039490         0.711802
 H         1.346630        -1.986160        -1.104962
 H         2.223843        -0.630832        -2.048385
 H         4.800663        -2.395460        -0.194314
 H         4.809508        -0.005845         0.989275
 H         1.719690         2.188615         0.368203
 H         2.005374         1.693534        -1.451732
 H         2.482662        -0.730408         2.142080
