19
Iteration:   894charge 0 multiplicity 1
 C         0.103319        -0.132844         0.368278
 C         1.548378         0.081981        -0.072069
 C         2.183402        -0.969339        -1.080849
 C         3.269031        -1.285376        -0.086123
 O         3.625205        -2.644759         0.183790
 C         3.784618         0.062754         0.527303
 O         3.535177         1.141347        -0.347024
 C         2.115204         1.445628        -0.376120
 C         2.556634        -0.556018         1.009659
 H        -0.161564         0.565861         1.125068
 H        -0.593972        -0.077673        -0.455005
 H        -0.103880        -1.050494         0.911813
 H         1.410661        -1.791482        -0.962747
 H         2.345360        -0.813670        -2.138244
 H         4.355231        -2.874257        -0.511745
 H         4.706504         0.172242         1.069089
 H         1.972246         2.195554         0.310750
 H         1.730579         1.833953        -1.379453
 H         2.177740        -0.674132         2.121196
