19
Iteration:  2842charge 0 multiplicity 1
 C         0.064793        -0.140988         0.406668
 C         1.462648         0.079250         0.006829
 C         2.035478        -0.983116        -1.109731
 C         3.161815        -1.342199         0.017148
 O         3.967621        -2.517849         0.314021
 C         3.746848         0.019617         0.326597
 O         3.518893         1.117267        -0.594376
 C         2.120026         1.390565        -0.264658
 C         2.576376        -0.496612         1.081017
 H        -0.197219         0.606541         1.111625
 H        -0.545004         0.105117        -0.565248
 H        -0.209139        -1.123618         0.690418
 H         1.303054        -1.728554        -1.309091
 H         2.473494        -0.636414        -2.127505
 H         3.616338        -3.207376        -0.341743
 H         4.745654        -0.095628         0.748903
 H         2.082865         2.104281         0.649122
 H         1.581280         1.917543        -1.123347
 H         2.489066        -0.655105         2.145779
