19
Iteration:  2357charge 0 multiplicity 1
 C         0.039981         0.168209         0.403383
 C         1.499113        -0.046143        -0.053998
 C         1.883001        -1.226162        -0.954903
 C         3.150386        -1.389139        -0.077854
 O         4.117659        -2.381858        -0.043886
 C         3.715725        -0.003973         0.509967
 O         3.579342         1.272629        -0.157292
 C         2.197915         1.217190        -0.579500
 C         2.414438        -0.555179         1.079411
 H        -0.058057         1.011248         0.947454
 H        -0.771349         0.253142        -0.533566
 H        -0.191812        -0.744686         1.081869
 H         1.262193        -2.067015        -0.968392
 H         2.089785        -0.875330        -2.117156
 H         4.275687        -2.585383         0.876051
 H         4.660540        -0.239622         0.886481
 H         1.777412         2.185930        -0.314861
 H         2.090969         0.899329        -1.667905
 H         2.050517        -0.865373         2.068977
