19
Iteration:   807charge 0 multiplicity 1
 C        -0.054512         0.203998         0.297392
 C         1.441451        -0.011494        -0.012122
 C         2.162047        -1.183672        -0.983272
 C         3.280391        -1.327305         0.028226
 O         3.861134        -2.636559        -0.041175
 C         3.786609         0.035915         0.508791
 O         3.516557         1.176562        -0.309966
 C         2.107276         1.273161        -0.413292
 C         2.491872        -0.482115         1.106525
 H        -0.139288         1.075752         1.020542
 H        -0.514676         0.625437        -0.579149
 H        -0.552344        -0.616539         0.760860
 H         1.773071        -2.219932        -1.094954
 H         2.485546        -0.835654        -1.948227
 H         4.819667        -2.493457         0.124169
 H         4.738724         0.184678         0.972391
 H         1.784391         2.122895         0.270916
 H         1.828459         1.500121        -1.459507
 H         2.282381        -0.898564         2.120687
