19
Iteration:  2912
 C        -0.004637         0.113394         0.384005
 C         1.529496        -0.025684         0.063751
 C         2.024409        -1.164599        -0.939815
 C         3.206465        -1.311032         0.031017
 O         4.040986        -2.458640        -0.033513
 C         3.784949        -0.014586         0.381213
 O         3.532172         1.200842        -0.287607
 C         2.070347         1.247378        -0.618759
 C         2.511015        -0.472732         1.124754
 H        -0.089260         0.896150         1.232303
 H        -0.647052         0.336934        -0.352643
 H        -0.277519        -0.822672         0.947194
 H         1.298462        -2.004892        -0.642659
 H         2.104355        -1.065617        -1.953185
 H         3.537121        -3.224918         0.345817
 H         4.746899        -0.029143         0.970924
 H         1.609091         2.100853        -0.147608
 H         1.855646         1.200026        -1.693226
 H         2.374714        -0.526809         2.268379
