19
Iteration:  2511
 C         0.017621         0.107626         0.429546
 C         1.492261        -0.029212        -0.000873
 C         2.025869        -1.158859        -0.968042
 C         3.242289        -1.297175        -0.061867
 O         3.959914        -2.507695         0.065104
 C         3.815629         0.014346         0.400493
 O         3.548239         1.274011        -0.248198
 C         2.082511         1.259921        -0.547348
 C         2.513158        -0.568839         1.095344
 H        -0.099451         0.891339         1.045093
 H        -0.702468         0.241344        -0.485292
 H        -0.343304        -0.821339         0.931209
 H         1.555481        -2.052749        -0.873216
 H         2.026208        -0.809174        -2.012912
 H         3.471465        -3.260225        -0.222053
 H         4.749109         0.092404         1.063649
 H         1.527024         2.131630        -0.230042
 H         2.083763         1.336869        -1.692036
 H         2.474601        -0.744728         2.200260
