19
Iteration:  3127
 C        -0.031446         0.075153         0.302983
 C         1.525685         0.077351         0.097437
 C         1.912924        -1.237280        -0.761679
 C         3.217926        -1.388158        -0.001901
 O         4.092559        -2.395856        -0.166216
 C         3.763159        -0.083318         0.439393
 O         3.556414         1.214563        -0.292521
 C         2.139479         1.237277        -0.572619
 C         2.498840        -0.424682         1.188800
 H        -0.124131         0.810045         1.165432
 H        -0.607067         0.571143        -0.638885
 H        -0.515658        -0.897347         0.468091
 H         1.247750        -2.111383        -0.558597
 H         2.011291        -1.036911        -1.928292
 H         3.732368        -3.300866         0.110263
 H         4.705213        -0.023162         0.948680
 H         1.725517         2.235756        -0.217670
 H         1.850136         1.180517        -1.657476
 H         2.421314        -0.402439         2.295540
