19
Iteration:  3412charge 0 multiplicity 1
 C         0.105173        -0.031235         0.409243
 C         1.542468        -0.003904        -0.076185
 C         1.957492        -1.194872        -1.017096
 C         3.181325        -1.378185        -0.026355
 O         4.015820        -2.493867         0.128613
 C         3.728957        -0.032930         0.354988
 O         3.606527         1.265178        -0.329192
 C         2.070853         1.419782        -0.431252
 C         2.485127        -0.479809         1.057408
 H        -0.025655         0.805989         1.099960
 H        -0.653164         0.182197        -0.402863
 H        -0.203131        -0.973809         0.968059
 H         1.236027        -1.859626        -0.755157
 H         2.045770        -1.077706        -2.090569
 H         3.381881        -3.269486         0.324533
 H         4.723109         0.064125         0.832964
 H         1.784246         2.158278         0.291243
 H         1.800070         1.859977        -1.495758
 H         2.246052        -0.618728         2.141389
