19
Iteration:  2545
 C         0.060076         0.167099         0.261981
 C         1.507277        -0.032323         0.015281
 C         1.818053        -1.249647        -0.755392
 C         3.196356        -1.341781         0.015004
 O         4.112439        -2.421458        -0.106375
 C         3.720936        -0.047386         0.469556
 O         3.571952         1.206238        -0.294573
 C         2.120835         1.265348        -0.556527
 C         2.495203        -0.513125         1.227137
 H        -0.165383         0.756770         1.055714
 H        -0.565274         0.617717        -0.673572
 H        -0.317443        -0.818085         0.547588
 H         1.393556        -2.112723        -0.453755
 H         1.785035        -1.169480        -1.870210
 H         4.145075        -2.601812        -1.033485
 H         4.677725        -0.054026         1.108718
 H         1.701266         2.106436         0.030477
 H         2.128606         1.323534        -1.729631
 H         2.386300        -0.387230         2.271130
