19
Iteration:  2091charge 0 multiplicity 1
 C         0.094701        -0.161503         0.322531
 C         1.570427         0.065116         0.055818
 C         2.078727        -1.073524        -1.027900
 C         3.169396        -1.329145        -0.046019
 O         3.765947        -2.523577         0.214691
 C         3.789584         0.010956         0.406162
 O         3.520023         1.178052        -0.365512
 C         2.092422         1.437912        -0.415391
 C         2.618485        -0.486296         1.054806
 H        -0.365257         0.341200         1.282290
 H        -0.599291        -0.002214        -0.545632
 H         0.041853        -1.194919         0.446715
 H         1.185990        -1.807247        -1.160610
 H         2.354877        -0.662463        -1.968665
 H         4.184762        -2.912905        -0.557210
 H         4.741110         0.031479         0.728025
 H         1.669025         2.357828         0.282514
 H         1.903504         1.723168        -1.422911
 H         2.478626        -0.710355         2.095053
