19
Iteration:  1326
 C         0.016904         0.028412         0.332870
 C         1.487625         0.002080         0.027738
 C         1.997934        -1.066332        -0.937767
 C         3.217065        -1.311498        -0.008487
 O         3.860326        -2.557917        -0.026350
 C         3.783348        -0.002912         0.465537
 O         3.574237         1.208173        -0.204021
 C         2.163309         1.323618        -0.540796
 C         2.520571        -0.557359         1.080703
 H        -0.342869         0.761295         1.126412
 H        -0.550727         0.235070        -0.555815
 H        -0.307008        -0.943738         0.472464
 H         1.441637        -2.001401        -0.703146
 H         1.988571        -0.796264        -1.980676
 H         4.853959        -2.562245        -0.154515
 H         4.623688         0.116033         1.129057
 H         1.863282         2.215532        -0.072090
 H         1.980670         1.480374        -1.726102
 H         2.390119        -0.708021         2.075085
