19
Iteration:  2438charge 0 multiplicity 1
 C         0.027651        -0.168663         0.227512
 C         1.566479         0.064495         0.099106
 C         2.121714        -0.964465        -0.943791
 C         3.226682        -1.300489         0.038633
 O         3.754512        -2.577214         0.152867
 C         3.803874         0.040371         0.364856
 O         3.527365         1.087761        -0.545438
 C         2.036123         1.416062        -0.306883
 C         2.571691        -0.473045         1.115609
 H        -0.588661         0.255567         1.173504
 H        -0.463144         0.277347        -0.659937
 H        -0.203758        -1.204559         0.148941
 H         1.369243        -1.877281        -0.883010
 H         2.421977        -0.755839        -2.008384
 H         4.668443        -2.647019        -0.083131
 H         4.857657         0.038696         0.831263
 H         2.142069         2.148945         0.541415
 H         1.598374         1.958371        -1.130052
 H         2.567309        -0.542380         2.166486
