19
Iteration:   245charge 0 multiplicity 1
 C         0.031246         0.210333         0.223302
 C         1.512855        -0.009766         0.000258
 C         1.937137        -1.196531        -0.981720
 C         3.234499        -1.346831        -0.028752
 O         4.041727        -2.524542         0.057890
 C         3.705638        -0.001657         0.483432
 O         3.552556         1.120671        -0.357005
 C         2.135604         1.331528        -0.295446
 C         2.461175        -0.516831         1.102064
 H        -0.195867         0.820592         1.041986
 H        -0.227167         0.764318        -0.664646
 H        -0.711915        -0.692942         0.314230
 H         1.277715        -2.073409        -0.571382
 H         1.904567        -1.189776        -2.030556
 H         4.734301        -2.455087        -0.641704
 H         4.666003        -0.061752         0.965499
 H         1.953161         2.105453         0.449338
 H         1.840742         1.613249        -1.294577
 H         2.173558        -0.821115         2.140571
