19
Iteration:  4934
 C         0.070666         0.019248         0.288503
 C         1.558237        -0.030558         0.109659
 C         2.037972        -1.057242        -1.021913
 C         3.218811        -1.303043        -0.073676
 O         3.919151        -2.452816         0.169208
 C         3.825724        -0.050173         0.388066
 O         3.508855         1.202806        -0.475764
 C         2.036163         1.353934        -0.338835
 C         2.559285        -0.597224         1.091118
 H        -0.322719         0.871514         0.932122
 H        -0.371501         0.105603        -0.707384
 H        -0.550581        -0.819242         0.830110
 H         1.336142        -1.886839        -1.071481
 H         2.265363        -0.656923        -1.989415
 H         3.357671        -3.131018         0.438250
 H         4.885733        -0.133851         0.779787
 H         1.746205         2.087008         0.469825
 H         1.601856         1.744913        -1.252926
 H         2.666080        -1.001648         2.115516
