19
Iteration:  4920
 C        -0.038104         0.028793         0.269492
 C         1.484680         0.028086         0.061754
 C         2.037842        -1.046351        -0.946808
 C         3.180256        -1.330485        -0.020543
 O         3.995900        -2.464045         0.104963
 C         3.799105         0.031420         0.318752
 O         3.513649         1.112503        -0.431530
 C         2.122641         1.354489        -0.309808
 C         2.594582        -0.579083         1.118537
 H        -0.345551         0.782772         0.989757
 H        -0.577047         0.291856        -0.742794
 H        -0.171763        -1.160607         0.518901
 H         1.334160        -1.981852        -0.833148
 H         2.247581        -0.757136        -2.029672
 H         3.389862        -3.195490         0.481832
 H         4.827583         0.017394         0.579130
 H         2.049723         2.183382         0.509149
 H         1.742806         1.627385        -1.267078
 H         2.322236        -0.826897         2.078580
