19
Iteration:  1102
 C        -0.033735        -0.034721         0.255315
 C         1.506607        -0.026296         0.053748
 C         2.201606        -0.935048        -0.990770
 C         3.225524        -1.328283         0.003619
 O         3.743952        -2.577361         0.151564
 C         3.800458         0.071017         0.400290
 O         3.522677         1.101793        -0.420874
 C         2.154147         1.322510        -0.304111
 C         2.551463        -0.511086         1.094834
 H        -0.234520         0.584788         1.048818
 H        -0.501163         0.281641        -0.689964
 H        -0.510836        -1.033314         0.552581
 H         1.601066        -1.685106        -1.540298
 H         2.781966        -0.508408        -1.754761
 H         4.021894        -2.849749        -0.701332
 H         4.761962         0.101294         0.891467
 H         1.847052         2.034950         0.439250
 H         1.771225         1.758145        -1.291088
 H         2.454961        -0.583450         2.164372
