19
Iteration:  2970charge 0 multiplicity 1
 C         0.070737         0.227720         0.430393
 C         1.515714        -0.068431         0.010545
 C         1.897031        -1.311616        -0.896539
 C         3.199340        -1.343946        -0.044401
 O         4.144039        -2.410931         0.007460
 C         3.751728         0.036287         0.410175
 O         3.504450         1.204533        -0.165754
 C         2.094803         1.245154        -0.661856
 C         2.502188        -0.494417         1.076799
 H         0.118470         1.092975         1.046855
 H        -0.814690         0.409542        -0.401758
 H        -0.445194        -0.602259         0.948771
 H         1.183563        -2.116350        -0.710884
 H         2.070035        -1.231113        -2.054473
 H         3.687732        -3.271345        -0.149054
 H         4.712679        -0.223829         0.762401
 H         1.598322         2.124808        -0.211312
 H         1.969206         1.424658        -1.755993
 H         2.315014        -0.593254         2.120236
