19
Iteration:  4101
 C         0.056365         0.155784         0.448248
 C         1.467832         0.026716         0.050480
 C         2.007778        -1.176518        -0.895203
 C         3.213576        -1.337639         0.026577
 O         3.986998        -2.470247        -0.106759
 C         3.730102        -0.022768         0.479455
 O         3.533948         1.099971        -0.377512
 C         2.128188         1.258184        -0.547407
 C         2.498312        -0.471188         1.116798
 H         0.101912         0.799028         1.272311
 H        -0.760236         0.387995        -0.288666
 H        -0.367779        -0.800777         0.860002
 H         1.236294        -2.121206        -0.750522
 H         2.182329        -1.150927        -1.914552
 H         4.846664        -2.273776         0.205306
 H         4.591592         0.213818         1.090714
 H         1.697751         2.312465        -0.306820
 H         1.775268         1.154654        -1.748553
 H         2.274478        -0.596074         2.133636
