19
Iteration:  4631charge 0 multiplicity 1
 C         0.030706         0.037487         0.310550
 C         1.524900         0.035803         0.005246
 C         1.957842        -1.166396        -0.891314
 C         3.205961        -1.310203        -0.033985
 O         3.980232        -2.473777        -0.052187
 C         3.765379        -0.013209         0.385554
 O         3.518932         1.122528        -0.414752
 C         2.147784         1.361931        -0.390779
 C         2.486264        -0.517765         1.173849
 H        -0.170840         0.835502         1.110371
 H        -0.457109         0.148371        -0.617813
 H        -0.263720        -0.881575         0.643280
 H         1.397567        -2.005040        -0.682537
 H         2.055842        -1.100219        -2.025563
 H         4.355887        -2.549898         0.797904
 H         4.690570         0.039825         1.028548
 H         1.869521         2.022567         0.431301
 H         1.844180         1.799670        -1.221591
 H         2.403320        -0.627376         2.241696
