19
Iteration:  4764charge 0 multiplicity 1
 C         0.059721        -0.045915         0.323685
 C         1.523248         0.040099         0.113663
 C         2.152818        -0.948941        -1.005413
 C         3.150036        -1.327547         0.046900
 O         3.957150        -2.540820         0.058432
 C         3.754428        -0.046807         0.382414
 O         3.493334         1.062690        -0.487718
 C         2.058133         1.412862        -0.365666
 C         2.555518        -0.467816         1.111936
 H        -0.435185         0.540571         1.208872
 H        -0.552980         0.181834        -0.573814
 H        -0.381000        -1.071115         0.455408
 H         1.530562        -1.736804        -1.319421
 H         2.535001        -0.498453        -1.933013
 H         3.546625        -3.221595         0.565738
 H         4.671923         0.104473         0.904382
 H         1.781403         2.247812         0.350022
 H         1.738370         1.707924        -1.338350
 H         2.453763        -0.802425         2.211384
