19
Iteration:   748
 C        -0.119251        -0.102646         0.345012
 C         1.465103         0.030311        -0.057026
 C         2.025963        -1.124364        -0.935523
 C         3.201960        -1.271969        -0.084696
 O         3.808887        -2.520872         0.026744
 C         3.819468        -0.003968         0.441646
 O         3.689090         1.203924        -0.264909
 C         2.226109         1.373094        -0.442795
 C         2.528061        -0.497325         1.043878
 H        -0.280849         0.734664         0.946151
 H        -0.879420         0.163311        -0.453414
 H        -0.423911        -1.125236         0.652414
 H         1.474931        -2.033805        -0.722265
 H         2.113375        -0.993624        -2.043434
 H         4.165204        -2.652814         0.875285
 H         4.768473         0.007399         1.039296
 H         1.895813         2.151559         0.159038
 H         2.084788         1.676574        -1.564609
 H         2.485154        -0.498540         2.148362
