19
Iteration:   456
 C        -0.081340         0.029899         0.351672
 C         1.455027        -0.048243         0.012824
 C         1.940811        -1.131504        -0.972229
 C         3.170813        -1.272397        -0.099033
 O         3.926039        -2.433211        -0.015279
 C         3.797083        -0.036461         0.425920
 O         3.690883         1.171870        -0.226819
 C         2.240218         1.247403        -0.492719
 C         2.446933        -0.440917         1.124596
 H        -0.191702         0.858204         1.126006
 H        -0.623316         0.225721        -0.658879
 H        -0.331268        -0.827840         0.857197
 H         1.324117        -1.971497        -0.781970
 H         2.088775        -1.039862        -2.108902
 H         4.420732        -2.453712         0.773787
 H         4.674955        -0.166494         0.999492
 H         1.854011         2.246603        -0.044045
 H         2.205947         1.364206        -1.603041
 H         2.212727        -1.028910         2.056573
