19
Iteration:  3823charge 0 multiplicity 1
 C         0.136624        -0.127807         0.389182
 C         1.592474        -0.025477        -0.014459
 C         2.109309        -1.073302        -1.048259
 C         3.235394        -1.339765        -0.015303
 O         3.754331        -2.661492         0.186758
 C         3.815573         0.114465         0.255549
 O         3.469837         1.235367        -0.467186
 C         2.082860         1.426838        -0.264707
 C         2.595036        -0.421518         1.021899
 H        -0.138839         0.734905         1.226233
 H        -0.577150        -0.099292        -0.440182
 H        -0.052877        -1.039313         0.887909
 H         1.371707        -1.853762        -1.170681
 H         2.237056        -0.880591        -2.166593
 H         3.333172        -3.180525         0.941457
 H         4.739948         0.239247         0.912906
 H         1.837877         2.064499         0.530048
 H         1.654266         1.956748        -1.225644
 H         2.341618        -0.570435         2.052505
