19
Iteration:  2018charge 0 multiplicity 1
 C         0.108582        -0.041787         0.327395
 C         1.506489         0.033330         0.020004
 C         2.035534        -1.011735        -0.989590
 C         3.192862        -1.305193        -0.089680
 O         3.823224        -2.565077         0.227280
 C         3.802271         0.006976         0.404490
 O         3.506731         1.160091        -0.411050
 C         2.068131         1.377495        -0.369007
 C         2.581521        -0.578746         1.047716
 H        -0.219858         0.600794         1.067480
 H        -0.528941         0.043828        -0.667737
 H        -0.078228        -1.064364         0.737473
 H         1.385437        -1.777094        -1.247366
 H         2.408512        -0.436717        -1.930615
 H         4.736477        -2.645817        -0.207303
 H         4.710778         0.119390         0.931130
 H         1.895431         2.084219         0.365983
 H         1.658250         1.668242        -1.453911
 H         2.339468        -0.685539         2.091704
