19
Iteration:  3385charge 0 multiplicity 1
 C        -0.015581         0.094771         0.368590
 C         1.502893        -0.022559         0.078231
 C         1.960346        -1.186783        -0.918543
 C         3.230922        -1.296065         0.007734
 O         4.002304        -2.422281        -0.057770
 C         3.797993        -0.031921         0.448525
 O         3.534081         1.216773        -0.219492
 C         2.143774         1.232849        -0.670907
 C         2.575150        -0.511091         1.179051
 H        -0.324022         1.016624         0.919926
 H        -0.571999         0.190222        -0.574676
 H        -0.465293        -0.765389         0.784144
 H         1.251042        -2.114335        -0.748424
 H         1.886770        -0.909744        -1.997105
 H         3.349895        -3.201902         0.047034
 H         4.757737         0.179998         0.842507
 H         1.702253         2.221123        -0.323000
 H         2.093275         1.220195        -1.693605
 H         2.541244        -0.699435         2.229688
