19
Iteration:  2782charge 0 multiplicity 1
 C         0.073022         0.050026         0.386636
 C         1.489909        -0.023950        -0.001395
 C         1.871865        -1.200585        -0.805044
 C         3.266209        -1.265903        -0.005005
 O         4.021635        -2.491484        -0.089101
 C         3.777309         0.038725         0.440548
 O         3.510460         1.260484        -0.211977
 C         2.164954         1.238336        -0.656265
 C         2.549020        -0.483501         1.125197
 H        -0.141013         0.881380         1.152327
 H        -0.393502         0.425940        -0.527842
 H        -0.436016        -0.899210         0.772779
 H         1.359882        -2.208260        -0.579626
 H         1.952667        -1.111975        -1.913699
 H         3.263625        -3.166180        -0.204014
 H         4.605187         0.097228         1.080483
 H         1.662083         2.179013        -0.292433
 H         2.011653         1.077053        -1.708410
 H         2.442679        -0.614176         2.180382
