19
Iteration:   720
 C         0.188292         0.015543         0.274366
 C         1.622455         0.010499        -0.003605
 C         2.142439        -1.051010        -0.986935
 C         3.152285        -1.389057         0.035832
 O         3.778997        -2.665166         0.032934
 C         3.774711         0.030299         0.468810
 O         3.465807         1.210285        -0.400307
 C         1.990265         1.390515        -0.394026
 C         2.580018        -0.523804         1.128033
 H        -0.129734         0.955500         0.887445
 H        -0.300215         0.496619        -0.611457
 H        -0.415894        -0.871378         0.406017
 H         1.395302        -1.865012        -1.081630
 H         2.516839        -0.713613        -1.963623
 H         4.323708        -2.784259         0.794374
 H         4.771726         0.163251         0.899520
 H         1.648344         2.139213         0.446518
 H         1.657826         1.709993        -1.357510
 H         2.343160        -0.562890         2.142185
