19
Iteration:  4890charge 0 multiplicity 1
 C         0.048112         0.012237         0.334039
 C         1.471086         0.025019         0.006419
 C         2.051988        -1.163646        -0.921185
 C         3.189364        -1.372735         0.036405
 O         4.051448        -2.497338        -0.070279
 C         3.659900        -0.008622         0.436450
 O         3.616143         1.122156        -0.427966
 C         2.139168         1.367015        -0.396027
 C         2.435764        -0.374258         1.169136
 H        -0.222760         0.440985         1.307950
 H        -0.576965         0.518728        -0.403078
 H        -0.354355        -1.044252         0.478090
 H         1.372993        -1.968997        -0.721391
 H         2.291923        -0.934363        -1.909193
 H         3.613016        -3.299427         0.103203
 H         4.657341        -0.026848         0.864363
 H         1.965734         2.119667         0.415521
 H         1.779856         1.752527        -1.344111
 H         1.996045        -0.179807         2.146718
