19
Iteration:  3077charge 0 multiplicity 1
 C         0.079068        -0.028362         0.490849
 C         1.539548        -0.026289        -0.069911
 C         2.051649        -1.061521        -1.087279
 C         3.245685        -1.295785        -0.098472
 O         3.884348        -2.506086         0.219060
 C         3.784542         0.030106         0.311359
 O         3.524586         1.189774        -0.355248
 C         2.049949         1.351006        -0.393261
 C         2.565813        -0.538440         1.002389
 H        -0.140811         0.878931         1.127654
 H        -0.548278        -0.022325        -0.308464
 H        -0.172219        -0.929604         1.100975
 H         1.523356        -2.062052        -1.157954
 H         2.327772        -0.729598        -2.041762
 H         3.234998        -3.029405         0.721057
 H         4.688095        -0.012966         0.854106
 H         1.715712         2.035914         0.386770
 H         1.858586         1.756609        -1.400643
 H         2.317840        -0.794778         1.981238
