19
Iteration:  1496
 C         0.145164        -0.079664         0.294340
 C         1.563665         0.042448        -0.021832
 C         2.131114        -0.906171        -1.028858
 C         3.268896        -1.354882         0.010981
 O         3.766985        -2.662552         0.210131
 C         3.795870         0.057778         0.402167
 O         3.455483         1.168233        -0.381670
 C         2.045013         1.386376        -0.406067
 C         2.572331        -0.540207         1.090186
 H        -0.156646         0.592879         1.132110
 H        -0.459816         0.150492        -0.602011
 H        -0.049094        -1.146949         0.767912
 H         1.408545        -1.735984        -1.202413
 H         2.413761        -0.422880        -1.960511
 H         3.478009        -3.245645        -0.575187
 H         4.679586         0.254681         0.929586
 H         1.817980         2.125511         0.335903
 H         1.686601         1.901252        -1.308615
 H         2.493609        -0.641940         2.099963
