19
Iteration:  3475charge 0 multiplicity 1
 C        -0.008386        -0.088367         0.295404
 C         1.561696         0.083355         0.133191
 C         2.118604        -1.061057        -0.961422
 C         3.192323        -1.345358         0.035958
 O         3.918086        -2.570976         0.108693
 C         3.783856         0.052455         0.296729
 O         3.509830         1.108148        -0.491095
 C         2.060137         1.396094        -0.371770
 C         2.613125        -0.421386         1.135053
 H        -0.312290         0.368448         1.165000
 H        -0.595632         0.423097        -0.595298
 H        -0.324359        -1.111109         0.299159
 H         1.210389        -1.717736        -1.101188
 H         2.384631        -0.765939        -1.976869
 H         3.285789        -3.250844         0.531904
 H         4.818629         0.083352         0.816421
 H         1.817454         2.258538         0.286254
 H         1.637450         1.587670        -1.326148
 H         2.520862        -0.663796         2.216555
