19
Iteration:  1701charge 0 multiplicity 1
 C        -0.043732         0.000352         0.265846
 C         1.508306        -0.042881         0.019280
 C         2.056607        -1.114491        -0.937618
 C         3.240940        -1.302045        -0.001236
 O         3.821619        -2.532175         0.163610
 C         3.838816         0.001745         0.353372
 O         3.589067         1.272355        -0.343692
 C         2.090213         1.285173        -0.381790
 C         2.580566        -0.502685         1.070609
 H        -0.357168         0.642452         1.042128
 H        -0.621180         0.380180        -0.668351
 H        -0.447291        -1.036239         0.470139
 H         1.474750        -1.965636        -0.856918
 H         2.205907        -0.849859        -2.020967
 H         4.095792        -2.728567        -0.762655
 H         4.915130        -0.050076         0.818786
 H         1.643157         2.108220         0.338438
 H         1.917184         1.625938        -1.321202
 H         2.481673        -0.674686         2.146400
