19
Iteration:  2790
 C         0.028419         0.029403         0.411071
 C         1.490888        -0.017338         0.025705
 C         1.965912        -1.221104        -0.866442
 C         3.260694        -1.333328        -0.029951
 O         3.942269        -2.489839        -0.022404
 C         3.790221         0.095835         0.471328
 O         3.559214         1.315429        -0.267855
 C         2.138216         1.225314        -0.622761
 C         2.581357        -0.496388         1.083858
 H        -0.046423         0.860850         1.252637
 H        -0.623049         0.295066        -0.353639
 H        -0.257588        -0.937936         0.832878
 H         1.341962        -2.198911        -0.739097
 H         1.929245        -0.975014        -1.869472
 H         3.307865        -3.211984        -0.378305
 H         4.674685         0.074992         1.114843
 H         1.694082         2.070853        -0.228100
 H         1.962997         1.271953        -1.704375
 H         2.073668        -0.644210         2.002242
