19
Iteration:  1122charge 0 multiplicity 1
 C         0.001771         0.066927         0.257987
 C         1.509062        -0.026230         0.030069
 C         2.076085        -1.056541        -0.997737
 C         3.285306        -1.275194         0.025984
 O         3.756427        -2.623755         0.041781
 C         3.821963         0.026300         0.516730
 O         3.565309         1.175129        -0.391483
 C         2.059922         1.327735        -0.380241
 C         2.562566        -0.495561         1.152056
 H        -0.197553         0.667172         1.117113
 H        -0.410236         0.355247        -0.818863
 H        -0.396909        -0.983091         0.295211
 H         1.587856        -1.987090        -0.879483
 H         2.372215        -0.833657        -2.130624
 H         4.542797        -2.615055        -0.572323
 H         4.723657         0.103351         1.123678
 H         1.769326         2.138578         0.288106
 H         1.689192         1.575430        -1.325998
 H         2.503799        -0.859078         2.202958
