19
Iteration:  1128
 C         0.050693         0.059647         0.236978
 C         1.526315         0.023012         0.026907
 C         2.061649        -1.100183        -0.948449
 C         3.261923        -1.302896        -0.038796
 O         3.800182        -2.613720         0.029084
 C         3.757248         0.051481         0.500828
 O         3.549468         1.162249        -0.337704
 C         2.100117         1.346681        -0.385210
 C         2.547958        -0.501669         1.116141
 H        -0.368885         0.685556         1.125517
 H        -0.380749         0.511283        -0.636557
 H        -0.336655        -0.921306         0.439086
 H         1.401859        -2.020718        -0.811248
 H         2.284928        -1.147425        -2.037802
 H         4.624167        -2.620978        -0.414156
 H         4.654118         0.091293         1.132386
 H         1.698849         2.168648         0.291317
 H         1.758512         1.614167        -1.459196
 H         2.533257        -0.856489         2.167619
