19
Iteration:  1746charge 0 multiplicity 1
 C         0.013451         0.261258         0.389590
 C         1.443032        -0.040236        -0.047971
 C         1.904958        -1.265898        -0.863786
 C         3.204276        -1.319286        -0.031309
 O         4.154672        -2.458923        -0.029329
 C         3.743046        -0.054388         0.477005
 O         3.554201         1.238300        -0.089553
 C         2.162004         1.213726        -0.680999
 C         2.398627        -0.551274         1.081673
 H         0.086076         1.151920         0.950019
 H        -0.757662         0.467604        -0.453563
 H        -0.485783        -0.625435         0.998057
 H         1.417032        -2.175857        -0.630322
 H         1.927264        -1.128737        -1.973933
 H         4.488787        -2.495242        -0.931372
 H         4.699094        -0.044304         1.110521
 H         1.832092         2.330732        -0.527505
 H         2.123967         1.107800        -1.724378
 H         2.037935        -0.790594         2.162523
