19
Iteration:  3711
 C        -0.018152         0.157286         0.302081
 C         1.501886        -0.008751         0.125095
 C         1.934217        -1.181550        -0.844150
 C         3.191774        -1.320653        -0.026158
 O         4.090409        -2.406746        -0.037326
 C         3.787971        -0.032757         0.401242
 O         3.546674         1.181221        -0.260587
 C         2.066978         1.237894        -0.533237
 C         2.558524        -0.523616         1.122726
 H        -0.320824         1.208031         0.796713
 H        -0.448664         0.324180        -0.638500
 H        -0.544595        -0.781933         0.593925
 H         1.253319        -1.998771        -0.645659
 H         2.042526        -1.068772        -2.012637
 H         3.656068        -3.226835         0.065318
 H         4.754817        -0.216117         0.690383
 H         1.726573         2.173324        -0.116968
 H         2.078280         1.298933        -1.743038
 H         2.478099        -0.836704         2.170354
