19
Iteration:  2083
 C         0.146725        -0.265217         0.336377
 C         1.591426         0.100488         0.050771
 C         2.039646        -1.089708        -1.076904
 C         3.183538        -1.330030        -0.043334
 O         3.713039        -2.567497         0.229632
 C         3.821542         0.026468         0.408806
 O         3.514926         1.219938        -0.391387
 C         2.087704         1.521055        -0.393024
 C         2.580904        -0.451807         1.072439
 H        -0.201752         0.191258         1.228013
 H        -0.458561         0.077220        -0.625425
 H         0.091882        -1.348097         0.550246
 H         1.485174        -1.947011        -1.137223
 H         2.405165        -0.753117        -2.093507
 H         3.919543        -3.041143        -0.552615
 H         4.825442         0.066438         0.882334
 H         1.972413         2.310093         0.350690
 H         1.705426         1.737438        -1.441934
 H         2.321458        -0.666013         2.131477
