19
Iteration:  2264charge 0 multiplicity 1
 C         0.023108        -0.128513         0.270855
 C         1.513716         0.002561         0.028769
 C         2.057111        -0.893617        -1.121285
 C         3.173341        -1.352826        -0.110649
 O         3.941567        -2.464627         0.362327
 C         3.755455        -0.010628         0.446532
 O         3.530972         1.077523        -0.478726
 C         2.134475         1.426453        -0.254218
 C         2.487131        -0.587158         0.967197
 H        -0.291349         0.580919         1.214625
 H        -0.532918         0.153095        -0.526206
 H        -0.238152        -1.106570         0.617729
 H         1.292558        -1.689321        -1.478875
 H         2.400856        -0.346566        -1.913476
 H         4.194042        -3.081425        -0.402415
 H         4.758827        -0.015173         0.898639
 H         2.124789         2.083593         0.688145
 H         1.806990         2.112278        -1.081109
 H         2.328340        -0.780942         2.079476
