19
Iteration:  1046
 C        -0.012422        -0.069239         0.327340
 C         1.508837        -0.028207        -0.035739
 C         2.003631        -1.160715        -1.117079
 C         3.169439        -1.271645        -0.104301
 O         3.763448        -2.480421         0.198372
 C         3.852686        -0.077182         0.413898
 O         3.668292         1.267495        -0.220274
 C         2.163889         1.398767        -0.357851
 C         2.521812        -0.487138         1.016002
 H        -0.174027         0.669880         1.024475
 H        -0.763694         0.187181        -0.523192
 H        -0.176233        -1.083313         0.698647
 H         1.456121        -2.069796        -1.034359
 H         2.379576        -0.920996        -2.130352
 H         4.234873        -2.849764        -0.588084
 H         4.824586        -0.171759         0.938556
 H         1.711604         2.008386         0.452111
 H         2.000384         1.828964        -1.377593
 H         2.241302        -0.646847         2.148405
