19
Iteration:   374
 C        -0.037005        -0.019788         0.221702
 C         1.516578         0.063142         0.051939
 C         1.984455        -1.027138        -0.959131
 C         3.204899        -1.305309        -0.146615
 O         3.859623        -2.471397         0.273342
 C         3.804228        -0.063901         0.393763
 O         3.613779         1.135426        -0.365765
 C         2.126539         1.404777        -0.311203
 C         2.549777        -0.558728         0.998386
 H        -0.609345         0.383503         1.069313
 H        -0.630111         0.216207        -0.603588
 H        -0.180955        -1.207731         0.290979
 H         1.360167        -1.981863        -0.903868
 H         2.216540        -0.819357        -2.007105
 H         4.400531        -2.775114        -0.468020
 H         4.786483        -0.174787         0.910041
 H         1.977818         2.249254         0.457706
 H         2.009226         1.893129        -1.255363
 H         2.438759        -1.123336         1.968006
