19
Iteration:   533
 C         0.045637        -0.042778         0.301898
 C         1.521194        -0.006203         0.012137
 C         2.122024        -0.942487        -1.032036
 C         3.213759        -1.294710        -0.000899
 O         3.759942        -2.563436         0.081481
 C         3.820692         0.043817         0.533956
 O         3.531508         1.033926        -0.509155
 C         2.150203         1.360318        -0.324167
 C         2.457406        -0.504982         1.087838
 H        -0.086458         0.627897         1.215671
 H        -0.442462         0.433029        -0.656297
 H        -0.269940        -1.007481         0.480154
 H         1.560687        -1.832108        -1.126821
 H         2.349027        -0.572377        -2.103933
 H         4.605357        -2.497656         0.535641
 H         4.769450         0.157737         1.096349
 H         2.063221         2.201810         0.465702
 H         1.686571         1.631554        -1.229645
 H         2.259745        -0.839350         2.171874
