19
Iteration:  4964charge 0 multiplicity 1
 C         0.024519        -0.016681         0.425276
 C         1.485866         0.054058        -0.044934
 C         2.117693        -1.119928        -1.032905
 C         3.238973        -1.341708         0.034439
 O         3.949661        -2.583659         0.059325
 C         3.802640        -0.005540         0.430013
 O         3.537766         1.218812        -0.394218
 C         2.068812         1.404077        -0.429075
 C         2.473004        -0.468273         1.041290
 H        -0.294056         0.856807         0.983839
 H        -0.778992        -0.037262        -0.406808
 H        -0.151332        -1.001105         1.113839
 H         1.335962        -1.964278        -0.864703
 H         2.496769        -0.745668        -2.020885
 H         3.393395        -3.343977         0.423963
 H         4.835013        -0.052276         0.755008
 H         1.714333         1.939044         0.524105
 H         1.852785         1.863719        -1.353528
 H         2.403372        -0.551032         2.063627
