19
Iteration:   299
 C         0.094149        -0.002397         0.305530
 C         1.568984         0.029356         0.027163
 C         2.019468        -0.980795        -0.991840
 C         3.268636        -1.301297        -0.039583
 O         3.749913        -2.547873         0.101898
 C         3.768255         0.021150         0.502350
 O         3.564764         1.144741        -0.386576
 C         2.099017         1.284392        -0.427648
 C         2.507652        -0.562341         1.069235
 H        -0.220394         0.675287         1.028428
 H        -0.458370         0.181530        -0.586294
 H        -0.271367        -1.035948         0.756113
 H         1.360883        -1.904312        -1.199655
 H         2.218640        -0.480388        -1.915476
 H         4.744311        -2.633597        -0.063564
 H         4.670990         0.080578         1.123635
 H         1.921366         2.161413         0.243282
 H         1.856853         1.594641        -1.363089
 H         2.360249        -0.853789         2.146536
