19
Iteration:   634
 C        -0.012907         0.121270         0.314104
 C         1.518952         0.000282        -0.040585
 C         2.028294        -1.111210        -1.023280
 C         3.169480        -1.375222        -0.016632
 O         3.936972        -2.619027         0.097261
 C         3.766561         0.017207         0.415926
 O         3.538668         1.249209        -0.182194
 C         2.177083         1.292741        -0.474705
 C         2.512675        -0.501197         1.133209
 H         0.031701         1.094262         0.970576
 H        -0.701846         0.330357        -0.534423
 H        -0.375813        -0.819022         0.785514
 H         1.347549        -2.010812        -1.259836
 H         2.366927        -0.674924        -2.002737
 H         4.148085        -2.852653        -0.821104
 H         4.669336        -0.206031         0.960620
 H         1.591240         2.144972        -0.072596
 H         2.067735         1.357309        -1.550860
 H         2.461551        -0.580188         2.158682
