19
Iteration:  4732
 C         0.031000        -0.074323         0.382344
 C         1.492545        -0.028491        -0.031234
 C         2.075594        -1.151797        -1.047245
 C         3.234531        -1.346419        -0.037978
 O         3.886323        -2.512349         0.177187
 C         3.783272         0.007964         0.349892
 O         3.566657         1.220968        -0.396806
 C         2.115930         1.440522        -0.342159
 C         2.517234        -0.396417         1.057462
 H        -0.206962         0.483729         1.341491
 H        -0.541153         0.464060        -0.394464
 H        -0.131713        -1.180861         0.529790
 H         1.451994        -2.051342        -0.926510
 H         2.182477        -0.973486        -2.129354
 H         3.323801        -3.193260        -0.302313
 H         4.695735        -0.044047         0.891553
 H         1.876670         1.931009         0.630587
 H         1.859885         1.905249        -1.221032
 H         2.383363        -0.888238         2.077387
