19
Iteration:  2063
 C         0.093628        -0.331782         0.382758
 C         1.562546         0.024006        -0.093562
 C         2.161882        -1.002000        -1.022646
 C         3.221119        -1.314863         0.025739
 O         3.619291        -2.637113         0.251885
 C         3.784052         0.107186         0.354205
 O         3.584571         1.277228        -0.452255
 C         2.111991         1.429522        -0.287896
 C         2.561868        -0.375346         0.978368
 H        -0.089001         0.094372         1.294476
 H        -0.719465        -0.221984        -0.402131
 H         0.220009        -1.453649         0.708799
 H         1.399811        -1.736241        -1.137576
 H         2.498864        -0.581838        -2.063235
 H         3.606926        -3.147283        -0.616978
 H         4.819688         0.150451         0.909402
 H         1.884159         1.854674         0.608435
 H         1.876196         2.007631        -1.259419
 H         2.408206        -0.446954         2.079693
