19
Iteration:   685charge 0 multiplicity 1
 C        -0.104010        -0.011559         0.300187
 C         1.483207        -0.004560         0.030870
 C         2.069744        -1.031300        -1.026228
 C         3.212571        -1.295970        -0.009722
 O         3.825216        -2.569120         0.112368
 C         3.845363         0.001217         0.444491
 O         3.627607         1.090121        -0.447271
 C         2.160812         1.355557        -0.324505
 C         2.491983        -0.472709         1.034357
 H        -0.404804         0.564946         1.172809
 H        -0.579311         0.387340        -0.641659
 H        -0.456217        -0.993963         0.454999
 H         1.484734        -1.863063        -1.094583
 H         2.312732        -0.637178        -2.043314
 H         4.687635        -2.380421         0.417245
 H         4.726631        -0.122340         1.148031
 H         1.930494         1.934543         0.611747
 H         1.928933         2.000206        -1.218991
 H         2.343415        -0.527253         2.110309
