19
Iteration:  1064charge 0 multiplicity 1
 C         0.123494        -0.174923         0.311407
 C         1.539903         0.072487        -0.145228
 C         1.978817        -1.081929        -1.057353
 C         3.135394        -1.335461        -0.085928
 O         3.834721        -2.524181         0.276366
 C         3.707818        -0.002105         0.388854
 O         3.617450         1.210621        -0.288938
 C         2.216997         1.476349        -0.256111
 C         2.493358        -0.508821         0.944977
 H        -0.363122         0.547341         1.113283
 H        -0.665182         0.057556        -0.528957
 H         0.096900        -1.192936         0.646743
 H         1.165024        -1.825078        -1.012165
 H         2.323092        -0.837282        -2.174489
 H         3.906911        -3.135585        -0.482799
 H         4.674503        -0.090954         0.870852
 H         2.150951         2.071554         0.670273
 H         2.017923         2.033420        -1.122542
 H         2.247298        -0.758326         1.976625
