19
Iteration:  3887charge 0 multiplicity 1
 C        -0.015140         0.017841         0.372020
 C         1.510881        -0.012103         0.043271
 C         1.938648        -1.106374        -0.927483
 C         3.181974        -1.320453        -0.004226
 O         4.009563        -2.482274        -0.004815
 C         3.736011        -0.007779         0.395275
 O         3.590716         1.114451        -0.435081
 C         2.139022         1.360660        -0.481147
 C         2.512831        -0.481622         1.142442
 H        -0.101177         0.556506         1.397297
 H        -0.552100         0.305681        -0.477608
 H        -0.387593        -0.912346         0.821235
 H         1.367581        -2.006722        -0.836039
 H         2.188827        -0.767994        -2.088196
 H         4.140660        -2.723993         0.893023
 H         4.754357        -0.007754         0.876977
 H         1.833729         2.246719         0.234634
 H         1.831309         1.666671        -1.509275
 H         2.410298        -0.680206         2.190316
