19
Iteration:   113
 C         0.069653         0.124216         0.247469
 C         1.530971        -0.023562         0.012671
 C         2.107474        -1.094613        -1.030131
 C         3.203244        -1.372782         0.082547
 O         3.862032        -2.598210         0.096194
 C         3.772414         0.047841         0.444714
 O         3.485674         1.129604        -0.430922
 C         2.083446         1.351545        -0.371499
 C         2.509239        -0.497403         1.173325
 H        -0.143056         0.712661         1.072026
 H        -0.324183         0.555755        -0.631125
 H        -0.440138        -0.939314         0.445636
 H         1.524415        -2.093314        -1.287941
 H         2.470654        -0.707636        -1.911315
 H         4.555447        -2.707397        -0.652837
 H         4.729160         0.074502         1.060548
 H         1.892497         2.019207         0.470383
 H         1.569352         1.868629        -1.235091
 H         2.417185        -0.520500         2.276982
