19
Iteration:  3142
 C        -0.047410         0.182729         0.278939
 C         1.435672        -0.095034         0.119891
 C         1.876944        -1.267892        -0.770033
 C         3.179363        -1.295064        -0.040339
 O         4.175211        -2.339422        -0.114172
 C         3.696519         0.000327         0.440922
 O         3.616567         1.108717        -0.345842
 C         2.160636         1.262747        -0.536145
 C         2.548463        -0.452348         1.217104
 H        -0.465374         0.762798         1.177462
 H        -0.380670         0.576682        -0.560552
 H        -0.538482        -0.816565         0.408347
 H         1.134579        -2.084800        -0.494003
 H         1.888998        -1.170770        -1.764085
 H         3.701679        -3.114362        -0.386185
 H         4.703457        -0.185480         0.815227
 H         1.820633         2.166565        -0.080903
 H         2.061463         1.293912        -1.574784
 H         2.355416        -0.561121         2.253222
