19
Iteration:  2193
 C         0.015888        -0.061667         0.283433
 C         1.495969         0.055227         0.061763
 C         1.965510        -1.097329        -0.782678
 C         3.241447        -1.297863         0.002348
 O         3.874143        -2.544225        -0.098253
 C         3.772557         0.005635         0.496457
 O         3.573784         1.209927        -0.261430
 C         2.130538         1.318261        -0.556579
 C         2.562845        -0.515437         1.121250
 H        -0.405481         0.586719         0.973644
 H        -0.422838         0.394084        -0.766902
 H        -0.466548        -1.083176         0.446805
 H         1.356237        -1.924491        -0.791647
 H         2.215430        -0.815934        -1.880633
 H         4.858008        -2.469210         0.101338
 H         4.857556         0.029984         0.943712
 H         1.712924         2.390659        -0.254259
 H         1.886384         1.235102        -1.674071
 H         2.161386        -0.682864         2.108224
