19
Iteration:  3351charge 0 multiplicity 1
 C         0.033214         0.237954         0.319811
 C         1.504218        -0.050734         0.043613
 C         1.886838        -1.291785        -0.802330
 C         3.251593        -1.360919         0.018764
 O         4.137137        -2.376693        -0.190311
 C         3.757287         0.014003         0.479088
 O         3.537132         1.163338        -0.261788
 C         2.146542         1.204727        -0.618172
 C         2.441630        -0.452718         1.211963
 H        -0.274150         1.073980         1.067367
 H        -0.331677         0.408389        -0.663453
 H        -0.424575        -0.674811         0.666371
 H         1.226863        -2.186478        -0.373645
 H         1.871022        -1.306894        -1.929846
 H         3.618244        -3.237889        -0.211915
 H         4.527326         0.082325         1.163114
 H         1.710977         2.116295        -0.061693
 H         1.911568         1.203624        -1.611673
 H         2.272117        -0.470763         2.309874
