19
Iteration:  4453charge 0 multiplicity 1
 C         0.076229         0.037917         0.461576
 C         1.483598         0.028845         0.052546
 C         1.948539        -1.064435        -0.951976
 C         3.132503        -1.332202        -0.032004
 O         3.998296        -2.522623         0.035932
 C         3.775206        -0.042235         0.362255
 O         3.558273         1.122170        -0.439665
 C         2.084491         1.298945        -0.458425
 C         2.522745        -0.468161         1.106388
 H        -0.190914         0.802841         1.117066
 H        -0.604835         0.223808        -0.478610
 H        -0.239039        -1.048228         0.705735
 H         1.169075        -1.919191        -0.818489
 H         2.177416        -0.877693        -2.007271
 H         4.804976        -2.304602         0.473993
 H         4.667136        -0.014858         0.949302
 H         1.920564         2.293222         0.272287
 H         1.854251         1.582772        -1.446514
 H         2.393668        -0.644905         2.158373
