19
Iteration:  3174
 C         0.034613         0.246093         0.340969
 C         1.447200        -0.065018         0.037818
 C         2.027475        -1.236731        -0.886984
 C         3.244489        -1.342331         0.005042
 O         4.152806        -2.417060         0.010829
 C         3.677388         0.022396         0.422733
 O         3.496565         1.093041        -0.443626
 C         2.068992         1.298493        -0.417706
 C         2.508642        -0.522751         1.130356
 H        -0.000585         1.084978         1.238228
 H        -0.487319         0.568644        -0.502098
 H        -0.491327        -0.734253         0.622873
 H         1.213012        -2.066207        -0.626080
 H         2.162717        -1.085695        -1.965960
 H         3.714551        -3.211081        -0.380998
 H         4.695270        -0.039001         0.832797
 H         1.778665         2.135367         0.256022
 H         1.760016         1.582884        -1.358101
 H         2.307152        -0.658364         2.175821
