19
Iteration:  3904
 C        -0.010886         0.211456         0.422043
 C         1.447353        -0.008389        -0.029708
 C         2.029949        -1.308053        -0.908587
 C         3.217214        -1.379352        -0.006855
 O         4.040414        -2.477518        -0.052031
 C         3.780769        -0.011089         0.393109
 O         3.518701         1.194406        -0.367213
 C         2.099984         1.308131        -0.416427
 C         2.535596        -0.474344         1.056742
 H        -0.224947         0.911475         1.196049
 H        -0.599734         0.585996        -0.526063
 H        -0.455624        -0.839931         0.745392
 H         1.212864        -2.077836        -0.749723
 H         2.301839        -1.079770        -1.837446
 H         4.272517        -2.888440         0.772948
 H         4.725261        -0.067553         0.955500
 H         1.706757         2.014850         0.277727
 H         1.827655         1.518211        -1.444442
 H         2.231702        -0.412767         2.140115
