19
Iteration:  2593charge 0 multiplicity 1
 C        -0.012095         0.111196         0.347922
 C         1.517080        -0.024682         0.036090
 C         2.040639        -1.140954        -0.925921
 C         3.219504        -1.355772        -0.015650
 O         3.962613        -2.507293         0.037045
 C         3.782881         0.025125         0.441307
 O         3.511074         1.151981        -0.455861
 C         2.069677         1.256309        -0.402285
 C         2.516027        -0.523035         1.075233
 H        -0.066607         1.049032         1.123737
 H        -0.503909         0.534876        -0.475418
 H        -0.568262        -0.694905         0.819960
 H         1.156225        -1.924454        -0.930005
 H         2.174014        -0.761010        -1.938544
 H         4.917999        -2.426422         0.288173
 H         4.728829         0.092006         0.903120
 H         1.829141         2.076873         0.397215
 H         1.733513         1.432849        -1.413023
 H         2.551408        -0.685647         2.195402
