19
Iteration:   270
 C        -0.078879         0.059676         0.210975
 C         1.500305         0.084216        -0.050465
 C         1.953337        -1.223817        -0.908339
 C         3.165492        -1.451867         0.013737
 O         4.000642        -2.496699         0.078905
 C         3.697788        -0.074714         0.320848
 O         3.637057         1.160736        -0.296445
 C         2.157212         1.429342        -0.300223
 C         2.520764        -0.483765         1.076154
 H        -0.295678         0.653825         1.206616
 H        -0.618422         0.578802        -0.689659
 H        -0.552554        -0.833321         0.504692
 H         1.091833        -1.908331        -0.904196
 H         2.270728        -1.047359        -1.952714
 H         4.806013        -2.217002        -0.303479
 H         4.719527        -0.243481         0.863735
 H         2.045448         2.094638         0.542973
 H         2.001962         2.039690        -1.364279
 H         2.474133        -0.622749         2.183830
