19
Iteration:     5
 C         0.032923         0.058237         0.301670
 C         1.547000         0.002396        -0.006806
 C         2.067801        -1.086412        -0.975507
 C         3.190377        -1.300246        -0.009949
 O         3.863096        -2.561155         0.132105
 C         3.771749         0.024708         0.422979
 O         3.571315         1.154781        -0.337401
 C         2.111733         1.332694        -0.402850
 C         2.502206        -0.550156         1.049900
 H        -0.213294         0.813294         1.029948
 H        -0.633215         0.276194        -0.539991
 H        -0.331936        -0.998698         0.577367
 H         1.311668        -1.982110        -0.973785
 H         2.240930        -0.743687        -1.987645
 H         4.647390        -2.651936        -0.453591
 H         4.645069         0.114177         1.120352
 H         1.755817         2.140832         0.303974
 H         1.905420         1.731123        -1.465258
 H         2.174589        -0.780703         2.082214
