19
Iteration:  3376charge 0 multiplicity 1
 C        -0.076970         0.130024         0.360764
 C         1.431404        -0.079764         0.068563
 C         1.968345        -1.151469        -0.846574
 C         3.237341        -1.273395        -0.017355
 O         4.016653        -2.417815        -0.123698
 C         3.808118         0.032008         0.455361
 O         3.562921         1.206751        -0.236568
 C         2.149371         1.216314        -0.682432
 C         2.576750        -0.537511         1.260698
 H        -0.160135         0.979086         0.908082
 H        -0.527100         0.292585        -0.729512
 H        -0.613326        -0.651589         0.817075
 H         1.447288        -2.049918        -0.642032
 H         2.103873        -1.123764        -1.883111
 H         3.415600        -3.244078        -0.031080
 H         4.815010        -0.084987         1.046782
 H         1.784818         2.228514        -0.469805
 H         2.038694         0.960766        -1.771463
 H         2.435801        -0.760361         2.291911
