19
Iteration:  2296charge 0 multiplicity 1
 C         0.005307        -0.033861         0.167664
 C         1.514205        -0.034414         0.023478
 C         2.082622        -1.170245        -0.925672
 C         3.196620        -1.331929         0.013807
 O         3.869126        -2.557760         0.060023
 C         3.750052         0.036983         0.485210
 O         3.554259         1.191643        -0.377824
 C         2.110505         1.431703        -0.350416
 C         2.559557        -0.496941         1.111365
 H        -0.369679         0.548430         1.117563
 H        -0.480957         0.420014        -0.623617
 H        -0.423799        -1.038046         0.281631
 H         1.331129        -2.010610        -0.940342
 H         2.346042        -0.827373        -1.851192
 H         4.502699        -2.427411        -0.619060
 H         4.742033         0.093647         0.928632
 H         1.921054         2.094380         0.556455
 H         1.725835         1.754483        -1.348398
 H         2.441731        -0.375669         2.237992
