19
Iteration:  4028
 C         0.000300        -0.041087         0.385519
 C         1.497815        -0.022007         0.075360
 C         2.083221        -1.014352        -1.057747
 C         3.235416        -1.275203        -0.001263
 O         3.846123        -2.615957         0.272961
 C         3.843585         0.023279         0.290962
 O         3.510610         1.161462        -0.577765
 C         2.074538         1.359078        -0.290154
 C         2.622855        -0.468401         1.093464
 H        -0.217685         0.732736         1.203663
 H        -0.545853         0.018684        -0.540908
 H        -0.515165        -0.962602         0.917423
 H         1.327817        -1.810093        -1.248721
 H         2.413194        -0.477084        -2.004873
 H         4.005905        -2.845115        -0.637685
 H         4.737006         0.139235         0.792468
 H         1.761498         2.097281         0.421432
 H         1.548141         1.574499        -1.145878
 H         2.624547        -0.739514         2.125534
