19
Iteration:   760charge 0 multiplicity 1
 C        -0.101736        -0.081070         0.375628
 C         1.458574         0.068944        -0.063125
 C         1.918024        -1.117016        -0.958213
 C         3.200106        -1.301293        -0.046002
 O         3.908701        -2.490282         0.010462
 C         3.787447        -0.057399         0.464043
 O         3.722687         1.174636        -0.238322
 C         2.211149         1.432698        -0.523400
 C         2.499908        -0.493113         1.062347
 H        -0.462183         0.470983         1.128868
 H        -0.597863        -0.035784        -0.641619
 H        -0.208934        -1.037472         0.833000
 H         1.263331        -1.897233        -0.756176
 H         2.021854        -1.029171        -2.075707
 H         4.317896        -2.482007         0.956961
 H         4.736765        -0.258951         1.060240
 H         1.972569         2.257122         0.013692
 H         2.099906         1.646858        -1.700009
 H         2.215224        -0.804846         2.044686
