19
Iteration:   663charge 0 multiplicity 1
 C         0.091976        -0.042238         0.293584
 C         1.528233         0.109962        -0.076643
 C         1.954026        -1.171994        -0.964887
 C         3.135351        -1.275659        -0.054103
 O         3.863942        -2.485618         0.114683
 C         3.700706        -0.033948         0.470997
 O         3.632347         1.102823        -0.341075
 C         2.249727         1.433612        -0.384220
 C         2.432009        -0.512918         1.085350
 H        -0.240166         0.468326         1.161306
 H        -0.652978         0.200954        -0.522592
 H        -0.105285        -1.057805         0.531916
 H         1.341266        -1.965594        -0.776062
 H         2.095357        -1.026231        -2.055883
 H         4.781459        -2.312146        -0.325980
 H         4.698630        -0.210346         1.007785
 H         1.918301         2.163932         0.410309
 H         2.044673         1.901812        -1.399087
 H         2.209044        -0.923700         2.108242
