19
Iteration:  4247
 C         0.060964        -0.010116         0.397402
 C         1.541297        -0.037778        -0.084836
 C         2.014132        -1.200072        -0.929876
 C         3.158825        -1.355251        -0.076677
 O         3.860758        -2.518706         0.190980
 C         3.810224         0.036448         0.319451
 O         3.531211         1.243955        -0.316240
 C         2.059184         1.372155        -0.388121
 C         2.610032        -0.465544         0.997000
 H        -0.072190         0.685498         1.203035
 H        -0.655030         0.419963        -0.237074
 H        -0.227940        -1.002582         0.676542
 H         1.276905        -2.031585        -0.778642
 H         2.251503        -1.130169        -1.975794
 H         4.162470        -3.008657        -0.647073
 H         4.861557         0.048158         0.784587
 H         1.873002         2.048070         0.470988
 H         1.773985         1.855978        -1.428028
 H         2.564045        -0.370829         2.083546
