19
Iteration:  2210charge 0 multiplicity 1
 C         0.057537        -0.074216         0.297837
 C         1.575677        -0.012978         0.019087
 C         2.063101        -1.129736        -1.003035
 C         3.211001        -1.312282        -0.026276
 O         3.755925        -2.646440         0.016004
 C         3.759099         0.102553         0.476746
 O         3.548423         1.306439        -0.294973
 C         2.128927         1.342683        -0.456210
 C         2.536203        -0.475775         1.134455
 H        -0.249132         0.571515         1.236124
 H        -0.519656         0.038989        -0.523246
 H        -0.067896        -1.090310         0.521989
 H         1.327715        -2.069947        -0.851971
 H         2.147968        -0.917249        -2.030028
 H         4.736569        -2.530603        -0.115949
 H         4.624959         0.210870         1.098579
 H         1.763791         2.207412         0.008541
 H         1.959171         1.576959        -1.484904
 H         2.559459        -0.644507         2.251171
