19
Iteration:  1613charge 0 multiplicity 1
 C         0.093036        -0.020657         0.319369
 C         1.553152         0.031874        -0.022761
 C         2.008215        -1.143858        -0.919393
 C         3.222547        -1.304150        -0.092540
 O         3.842458        -2.571607         0.117357
 C         3.720832         0.053999         0.432865
 O         3.557423         1.249233        -0.267412
 C         2.165787         1.372580        -0.470962
 C         2.486942        -0.570690         1.069492
 H        -0.162204         0.603487         1.109936
 H        -0.641223         0.200935        -0.507198
 H        -0.006526        -1.009051         0.722571
 H         1.345509        -1.928091        -0.829565
 H         2.072366        -0.763658        -1.989170
 H         4.433838        -2.752089        -0.617528
 H         4.582733         0.020490         1.072676
 H         1.676940         2.269358        -0.020653
 H         1.952507         1.497361        -1.459879
 H         2.478195        -0.813385         2.090614
