19
Iteration:  3388charge 0 multiplicity 1
 C         0.007580         0.093881         0.369857
 C         1.523600         0.002247         0.075393
 C         1.942714        -1.205015        -0.920539
 C         3.212518        -1.322470        -0.007310
 O         4.002953        -2.432011        -0.033571
 C         3.779582        -0.020114         0.447522
 O         3.518740         1.220834        -0.226832
 C         2.147182         1.237831        -0.624996
 C         2.568981        -0.497953         1.129643
 H        -0.311073         0.885711         0.909925
 H        -0.600238         0.200078        -0.642973
 H        -0.338668        -0.815167         0.863718
 H         1.351878        -2.030626        -0.789346
 H         1.929591        -0.853412        -1.903815
 H         3.378725        -3.165826         0.064100
 H         4.868495         0.130886         0.873239
 H         1.691374         2.154148        -0.292970
 H         2.111000         1.281421        -1.777515
 H         2.531977        -0.669582         2.189919
