19
Iteration:  2311
 C         0.066391         0.034466         0.204221
 C         1.533181        -0.026377         0.021864
 C         2.008418        -1.169861        -0.871901
 C         3.252556        -1.334095         0.047262
 O         3.880474        -2.628167        -0.059536
 C         3.765174         0.105545         0.474253
 O         3.529689         1.279093        -0.296956
 C         2.086944         1.288401        -0.436896
 C         2.498702        -0.466588         1.142441
 H        -0.255914         0.714773         1.043140
 H        -0.307674         0.551271        -0.730517
 H        -0.413159        -0.943335         0.315065
 H         1.427570        -2.101960        -0.666719
 H         2.106482        -1.080237        -2.010108
 H         4.850920        -2.612129        -0.335980
 H         4.688657         0.169026         1.203700
 H         1.687586         2.066012         0.234204
 H         1.987345         1.567134        -1.499576
 H         2.263558        -0.729063         2.135602
