19
Iteration:  2771
 C         0.031453         0.153208         0.326232
 C         1.521742        -0.018890         0.106933
 C         1.955517        -1.260867        -0.802629
 C         3.205287        -1.333593        -0.066057
 O         4.069117        -2.427270        -0.136024
 C         3.743770         0.009322         0.450647
 O         3.496310         1.223763        -0.200241
 C         2.133547         1.221469        -0.639930
 C         2.518953        -0.463431         1.171209
 H        -0.185504         0.915812         1.186030
 H        -0.554854         0.392273        -0.567026
 H        -0.388535        -0.886966         0.601329
 H         1.188952        -2.020798        -0.364000
 H         1.896450        -1.197650        -1.918062
 H         3.544351        -3.274043         0.032229
 H         4.735984        -0.046488         0.793185
 H         1.674592         2.250661        -0.475117
 H         2.239757         1.157185        -1.706595
 H         2.624300        -0.518249         2.200917
