19
Iteration:   756charge 0 multiplicity 1
 C        -0.147127        -0.108640         0.360347
 C         1.446375         0.065015        -0.099629
 C         1.958153        -1.091828        -0.945499
 C         3.215828        -1.310961        -0.060421
 O         3.865067        -2.482626         0.019592
 C         3.806890        -0.047986         0.462865
 O         3.732674         1.182497        -0.240241
 C         2.214193         1.413751        -0.515897
 C         2.524774        -0.505981         1.048250
 H        -0.343230         0.662036         1.276187
 H        -0.550547         0.011737        -0.629118
 H        -0.377757        -1.158626         0.871577
 H         1.320983        -2.066687        -0.663845
 H         2.036736        -1.082205        -2.046615
 H         4.205307        -2.493797         0.881736
 H         4.717403        -0.138775         1.034340
 H         1.940873         2.338961         0.116659
 H         2.059861         1.653409        -1.541120
 H         2.339473        -0.685536         2.179678
