19
Iteration:   524charge 0 multiplicity 1
 C         0.015596        -0.000053         0.288304
 C         1.543745         0.013863         0.004614
 C         2.204950        -1.042660        -1.038339
 C         3.245552        -1.249600         0.049596
 O         3.707556        -2.598117         0.046190
 C         3.768525         0.051482         0.448576
 O         3.523427         1.079082        -0.438665
 C         2.117533         1.319608        -0.326607
 C         2.548613        -0.495331         1.081023
 H        -0.225186         0.694055         1.234315
 H        -0.692565         0.417357        -0.547979
 H        -0.392399        -0.893176         0.649450
 H         1.638167        -1.968032        -1.114942
 H         2.498564        -0.531265        -2.005096
 H         4.539358        -2.710046         0.530532
 H         4.613449         0.248227         1.160850
 H         1.933484         2.127082         0.454178
 H         1.734995         1.738488        -1.358738
 H         2.453487        -0.799211         2.140115
