19
Iteration:  3955
 C        -0.031189         0.044147         0.400039
 C         1.421671        -0.007758         0.104030
 C         1.984373        -1.152832        -0.957080
 C         3.152977        -1.286908        -0.048161
 O         4.011514        -2.459960        -0.003562
 C         3.815884        -0.019999         0.338440
 O         3.577639         1.188765        -0.305419
 C         2.124895         1.279253        -0.559049
 C         2.592725        -0.482852         1.150902
 H        -0.257631         0.716207         1.284467
 H        -0.503656         0.340877        -0.513538
 H        -0.432384        -0.806303         0.722992
 H         1.407249        -2.060386        -0.762482
 H         2.007100        -0.830405        -2.057643
 H         3.803921        -3.029740         0.796540
 H         4.768071        -0.106793         0.775989
 H         1.775181         2.239172        -0.057824
 H         1.856544         1.297148        -1.678782
 H         2.557566        -0.698087         2.237650
