19
Iteration:   723charge 0 multiplicity 1
 C         0.179609         0.021883         0.296541
 C         1.600893         0.006871        -0.021988
 C         2.124277        -1.061932        -0.982746
 C         3.168626        -1.383381         0.020937
 O         3.771160        -2.651773         0.028179
 C         3.778597         0.031428         0.466795
 O         3.497635         1.219965        -0.383392
 C         1.997888         1.371821        -0.395006
 C         2.575041        -0.496727         1.125133
 H        -0.137745         0.971182         0.885590
 H        -0.242281         0.421786        -0.645874
 H        -0.373746        -0.987660         0.349190
 H         1.385573        -1.987410        -1.095072
 H         2.461223        -0.740163        -1.974512
 H         4.298892        -2.827809         0.821137
 H         4.734931         0.196730         0.891686
 H         1.692121         2.109478         0.410575
 H         1.625233         1.687552        -1.334711
 H         2.290315        -0.625660         2.213429
