19
Iteration:  2966
 C         0.069685         0.231386         0.431287
 C         1.486192        -0.061348        -0.049174
 C         1.889648        -1.318991        -0.875159
 C         3.163558        -1.336404        -0.049965
 O         4.175547        -2.382382         0.020665
 C         3.717181         0.006878         0.404820
 O         3.488781         1.211209        -0.160206
 C         2.143122         1.246632        -0.634988
 C         2.516947        -0.502887         1.015376
 H         0.162299         1.203374         1.069989
 H        -0.626835         0.416329        -0.229989
 H        -0.342195        -0.577503         1.100486
 H         1.191938        -2.257298        -0.711788
 H         2.026788        -1.173773        -1.861052
 H         3.623610        -3.201407        -0.101558
 H         4.736592        -0.276449         0.814472
 H         1.581156         2.071442        -0.190728
 H         2.064720         1.292183        -1.737013
 H         2.264371        -0.738522         2.132392
