19
Iteration:  1874
 C         0.005054        -0.150934         0.368415
 C         1.491341         0.038054         0.036223
 C         2.162552        -0.993810        -1.075737
 C         3.182547        -1.308373        -0.013573
 O         3.757731        -2.673736         0.175388
 C         3.832568         0.008131         0.329871
 O         3.558462         1.226641        -0.467176
 C         2.082560         1.384217        -0.350457
 C         2.540515        -0.429077         1.072226
 H        -0.411702         0.441788         1.166136
 H        -0.712720        -0.069111        -0.519339
 H        -0.086282        -1.095915         0.784586
 H         1.608485        -1.893333        -1.303459
 H         2.620323        -0.426141        -1.981023
 H         4.483502        -2.573367         0.845989
 H         4.872526         0.102640         0.804276
 H         1.961038         1.937652         0.558108
 H         1.799901         2.011156        -1.299804
 H         2.369866        -0.668735         2.159595
