19
Iteration:  1646charge 0 multiplicity 1
 C         0.039056        -0.232563         0.394789
 C         1.515275         0.035875        -0.037852
 C         2.105483        -1.023120        -1.148463
 C         3.120328        -1.302944        -0.043999
 O         3.730537        -2.514214         0.265609
 C         3.751514        -0.025035         0.338585
 O         3.576955         1.103221        -0.456570
 C         2.173392         1.460584        -0.267241
 C         2.543432        -0.420485         1.051763
 H        -0.155024         0.325892         1.250901
 H        -0.733610        -0.095379        -0.444686
 H        -0.011454        -1.291510         0.663260
 H         1.486037        -1.743891        -1.523031
 H         2.604386        -0.414814        -1.973975
 H         4.726379        -2.397584         0.084869
 H         4.744205        -0.019972         0.862827
 H         2.043893         2.047008         0.685605
 H         2.047071         1.947335        -1.122153
 H         2.470968        -0.497447         2.076960
