19
Iteration:  1638
 C         0.004981        -0.236903         0.421319
 C         1.508763         0.035699        -0.074439
 C         2.072489        -1.042731        -1.132664
 C         3.104325        -1.298696        -0.053085
 O         3.769747        -2.542171         0.243050
 C         3.831249        -0.003573         0.389311
 O         3.616844         1.121684        -0.377057
 C         2.167038         1.471985        -0.325504
 C         2.519559        -0.409401         1.012796
 H        -0.356996         0.343195         1.257695
 H        -0.526673         0.039375        -0.425950
 H        -0.139635        -1.332780         0.767390
 H         1.363701        -1.896761        -1.306822
 H         2.282433        -0.485771        -2.110366
 H         4.725713        -2.411607        -0.050352
 H         4.899160        -0.187676         0.875672
 H         1.912214         2.143185         0.469249
 H         1.848177         2.030334        -1.328780
 H         2.436724        -0.517943         2.102784
