19
Iteration:  1666charge 0 multiplicity 1
 C         0.137885        -0.182140         0.344335
 C         1.589913         0.080534        -0.021658
 C         2.191937        -0.890927        -1.063471
 C         3.154736        -1.327947         0.024249
 O         3.742374        -2.638094         0.280648
 C         3.806747         0.010930         0.385946
 O         3.472622         1.120345        -0.605021
 C         2.080249         1.458762        -0.236666
 C         2.463182        -0.531639         1.025885
 H        -0.176365         0.404073         1.268347
 H        -0.477902         0.118891        -0.618060
 H        -0.021789        -1.205965         0.559263
 H         1.442058        -1.611400        -1.209098
 H         2.508439        -0.418311        -1.991821
 H         4.655559        -2.590355        -0.020557
 H         4.767125         0.096645         0.832119
 H         2.112089         2.003011         0.784586
 H         1.524666         1.972845        -0.988490
 H         2.257962        -0.707844         2.023889
