19
Iteration:  1748
 C        -0.003714         0.257787         0.390189
 C         1.444825        -0.053478        -0.032272
 C         1.917087        -1.279224        -0.880653
 C         3.198620        -1.322739        -0.042351
 O         4.152811        -2.461982        -0.033023
 C         3.741730        -0.039045         0.499016
 O         3.558190         1.243626        -0.089658
 C         2.173134         1.202031        -0.675530
 C         2.398122        -0.534779         1.079776
 H         0.085487         1.222035         0.938464
 H        -0.707745         0.517903        -0.349975
 H        -0.534267        -0.553470         1.057722
 H         1.361549        -2.299714        -0.670317
 H         1.973897        -1.097291        -1.962627
 H         4.483317        -2.407545        -0.905467
 H         4.629482        -0.028687         1.032503
 H         1.905600         2.263819        -0.580308
 H         2.085934         1.145468        -1.819268
 H         2.046894        -0.841550         2.133135
