19
Iteration:  1753
 C        -0.028514         0.254165         0.418774
 C         1.443873        -0.080074         0.001935
 C         1.936817        -1.327469        -0.920306
 C         3.194434        -1.341192        -0.063331
 O         4.128990        -2.456948        -0.035367
 C         3.695647         0.008723         0.540919
 O         3.556997         1.249061        -0.105013
 C         2.213866         1.170960        -0.677786
 C         2.416178        -0.506800         1.084811
 H         0.065837         1.250077         0.943712
 H        -0.736078         0.638505        -0.408092
 H        -0.536915        -0.307556         1.125136
 H         1.358310        -2.266697        -0.807276
 H         2.086385        -1.056215        -1.988204
 H         4.555518        -2.246058        -0.938684
 H         4.743413        -0.067856         1.040454
 H         1.880165         2.219294        -0.539964
 H         2.137767         1.128590        -1.831625
 H         2.143033        -0.914794         2.001218
