19
Iteration:   738
 C        -0.001858        -0.003570         0.271916
 C         1.511789        -0.032132         0.018468
 C         2.052047        -1.158840        -0.981456
 C         3.250098        -1.273811        -0.018269
 O         3.764279        -2.594543         0.016054
 C         3.805762         0.051005         0.408688
 O         3.586775         1.233451        -0.311413
 C         2.189656         1.331449        -0.384458
 C         2.520383        -0.439031         1.068981
 H        -0.256441         0.545161         1.100807
 H        -0.729532         0.187551        -0.562213
 H        -0.200545        -0.958382         0.724592
 H         1.447021        -2.010985        -0.969461
 H         2.267671        -0.821642        -2.015512
 H         4.143288        -2.735551         0.863573
 H         4.742175        -0.044771         1.015903
 H         1.844132         2.071881         0.272179
 H         1.972445         1.651310        -1.488037
 H         2.355055        -0.611580         2.128538
