19
Iteration:  1051
 C         0.012267        -0.097219         0.311109
 C         1.494583         0.015789        -0.071068
 C         2.025541        -1.163571        -1.121210
 C         3.141347        -1.305165        -0.108093
 O         3.777840        -2.465816         0.232775
 C         3.816045        -0.045358         0.377355
 O         3.682234         1.246851        -0.222823
 C         2.199361         1.413984        -0.325330
 C         2.507388        -0.481254         1.017596
 H        -0.149319         0.627357         1.235746
 H        -0.648957        -0.032021        -0.499686
 H        -0.152945        -1.135621         0.690964
 H         1.373825        -2.148120        -1.048177
 H         2.141350        -0.870331        -2.183052
 H         4.058781        -2.895041        -0.618520
 H         4.674194        -0.183224         1.021296
 H         1.728922         1.968012         0.514579
 H         1.967370         1.984195        -1.286725
 H         2.426673        -0.655433         2.014297
