19
Iteration:  2266
 C         0.018970        -0.126934         0.279920
 C         1.507358         0.001752         0.013109
 C         2.068036        -0.893707        -1.099343
 C         3.167084        -1.338331        -0.096816
 O         3.950501        -2.467509         0.357117
 C         3.749546        -0.025419         0.427080
 O         3.533036         1.067381        -0.471104
 C         2.133021         1.434783        -0.253005
 C         2.492606        -0.575228         0.974225
 H        -0.371328         0.549576         1.187380
 H        -0.520732         0.194375        -0.593776
 H        -0.264145        -1.094037         0.566823
 H         1.267064        -1.684603        -1.408097
 H         2.396842        -0.311593        -1.965429
 H         4.172472        -3.025926        -0.468933
 H         4.839605         0.014282         0.900524
 H         2.139467         2.002520         0.678974
 H         1.803758         2.038358        -1.106933
 H         2.298349        -0.812326         2.053615
