19
Iteration:  1327
 C         0.013690         0.028407         0.328562
 C         1.481201        -0.001661         0.035938
 C         1.985830        -1.076556        -0.932029
 C         3.212770        -1.314007        -0.017785
 O         3.866299        -2.548426        -0.028262
 C         3.780182        -0.010204         0.456109
 O         3.583627         1.208491        -0.193902
 C         2.167016         1.315988        -0.544591
 C         2.530408        -0.547033         1.091273
 H        -0.342671         0.741855         1.105668
 H        -0.579758         0.251905        -0.586285
 H        -0.360919        -0.923468         0.464806
 H         1.460437        -1.959420        -0.701292
 H         1.968900        -0.796947        -2.005498
 H         4.879309        -2.543877        -0.154402
 H         4.628945         0.095020         1.144689
 H         1.842499         2.256217        -0.110662
 H         1.999006         1.485390        -1.716864
 H         2.388316        -0.714605         2.067876
