19
Iteration:  1875
 C         0.003974        -0.143752         0.370354
 C         1.491121         0.037953         0.030364
 C         2.153844        -1.007671        -1.081018
 C         3.184632        -1.313626        -0.013134
 O         3.756391        -2.668742         0.171614
 C         3.836660         0.012174         0.341022
 O         3.561278         1.231126        -0.459591
 C         2.079429         1.386011        -0.352277
 C         2.543152        -0.426398         1.068106
 H        -0.379585         0.421222         1.143068
 H        -0.729187        -0.088406        -0.516765
 H        -0.088692        -1.111373         0.801908
 H         1.616337        -1.865790        -1.293348
 H         2.602198        -0.457605        -1.996587
 H         4.503311        -2.568601         0.855036
 H         4.852610         0.070490         0.770609
 H         1.969296         1.956367         0.547685
 H         1.815707         1.958428        -1.272508
 H         2.371047        -0.656664         2.157790
