19
Iteration:   306
 C         0.086913        -0.043807         0.364676
 C         1.533405        -0.015074         0.002967
 C         2.119938        -0.944595        -0.993336
 C         3.270501        -1.278844        -0.037263
 O         3.718644        -2.603117         0.100690
 C         3.724046         0.075014         0.505600
 O         3.568934         1.118094        -0.378670
 C         2.100083         1.342995        -0.435063
 C         2.544326        -0.558765         1.064068
 H        -0.104022         0.921725         0.978146
 H        -0.544429         0.140113        -0.532201
 H        -0.211798        -1.017315         0.694253
 H         1.392196        -1.703632        -1.105538
 H         2.355625        -0.506296        -2.029762
 H         4.608943        -2.863690        -0.118263
 H         4.527821         0.209427         1.151147
 H         1.790227         2.248523         0.195593
 H         1.737286         1.513579        -1.540779
 H         2.429313        -0.915931         2.055911
