19
Iteration:   168
 C         0.099626        -0.213828         0.348219
 C         1.567565         0.044810        -0.085365
 C         2.030544        -1.117004        -1.066929
 C         3.135068        -1.317193        -0.124197
 O         3.672363        -2.468341         0.247213
 C         3.794511         0.026316         0.412741
 O         3.654322         1.202219        -0.346074
 C         2.195247         1.448777        -0.292994
 C         2.505157        -0.431242         1.014343
 H        -0.189178         0.486229         1.029715
 H        -0.590176        -0.147067        -0.449025
 H        -0.008117        -1.311619         0.689929
 H         1.263235        -1.991707        -1.030787
 H         2.282260        -1.037729        -2.053658
 H         4.436545        -2.806228        -0.319601
 H         4.704621        -0.194023         0.894748
 H         2.062005         2.040717         0.578622
 H         1.854078         1.924759        -1.227671
 H         2.158718        -0.787515         1.960671
