19
Iteration:  3700charge 0 multiplicity 1
 C         0.057332         0.089063         0.297183
 C         1.512424        -0.000765         0.043267
 C         1.895000        -1.153227        -0.868618
 C         3.152766        -1.401178        -0.079928
 O         4.061612        -2.402711         0.035879
 C         3.760553        -0.054898         0.405651
 O         3.533108         1.222638        -0.263726
 C         2.117531         1.338018        -0.522289
 C         2.616108        -0.575016         1.100076
 H        -0.316794         0.958548         1.024452
 H        -0.356832         0.122337        -0.650541
 H        -0.335871        -0.766927         0.901181
 H         1.242293        -2.003531        -0.761470
 H         1.842963        -0.762811        -1.956392
 H         3.605466        -3.178680         0.374858
 H         4.703847        -0.141244         0.813308
 H         1.598697         2.184104        -0.105749
 H         1.836593         1.348690        -1.723272
 H         2.472911        -0.583554         2.183961
