19
Iteration:  4192charge 0 multiplicity 1
 C         0.026945        -0.093854         0.427699
 C         1.529369         0.023105         0.024178
 C         2.065748        -0.975694        -0.995840
 C         3.152976        -1.341469        -0.000277
 O         3.811088        -2.568176         0.155277
 C         3.851589        -0.040458         0.282217
 O         3.516893         1.116592        -0.505336
 C         2.079480         1.369571        -0.374794
 C         2.564451        -0.387754         1.187640
 H        -0.367644         0.556798         1.191601
 H        -0.492297        -0.100134        -0.484764
 H        -0.201657        -1.127645         0.733592
 H         1.466087        -1.911290        -1.225062
 H         2.460997        -0.569627        -1.925448
 H         4.754230        -2.468163        -0.235724
 H         4.874999        -0.021890         0.716814
 H         1.980121         2.240418         0.313517
 H         1.695412         1.811869        -1.422064
 H         2.464289        -0.634857         2.286734
