19
Iteration:  1177
 C        -0.009035         0.200259         0.405247
 C         1.474967        -0.045214        -0.006009
 C         1.942229        -1.205574        -1.016703
 C         3.180335        -1.343369        -0.077639
 O         3.990201        -2.400739         0.031263
 C         3.732729        -0.065538         0.485242
 O         3.583636         1.143764        -0.196982
 C         2.238104         1.300922        -0.518333
 C         2.434509        -0.602265         1.050964
 H        -0.143975         1.024747         1.077119
 H        -0.668095         0.451004        -0.529358
 H        -0.348180        -0.699763         1.031380
 H         1.377222        -2.113037        -1.110538
 H         2.123680        -0.852572        -2.137674
 H         4.930430        -2.016467         0.105995
 H         4.713978        -0.157443         0.929422
 H         1.854156         2.253543        -0.099072
 H         2.066802         1.311241        -1.551868
 H         2.123366        -0.770551         2.025203
