19
Iteration:  3765
 C         0.003020         0.127290         0.343941
 C         1.512555         0.007825         0.015040
 C         1.968476        -1.192604        -0.887756
 C         3.202478        -1.408927         0.038507
 O         4.108173        -2.389427        -0.047717
 C         3.704640        -0.056407         0.489439
 O         3.519902         1.102247        -0.427942
 C         2.140680         1.343322        -0.475152
 C         2.466655        -0.431737         1.151045
 H        -0.087409         0.651767         1.411213
 H        -0.666597         0.528721        -0.411118
 H        -0.264473        -0.955586         0.658953
 H         1.388762        -2.084174        -0.721380
 H         2.227418        -0.760827        -1.958518
 H         3.731856        -3.240491        -0.188032
 H         4.624498        -0.185460         0.952236
 H         1.854870         2.244050         0.042032
 H         2.034339         1.487383        -1.556934
 H         2.269587        -0.557168         2.233981
