19
Iteration:  1608charge 0 multiplicity 1
 C         0.121443         0.030396         0.319680
 C         1.544130        -0.004620        -0.005097
 C         2.019944        -1.156976        -0.932623
 C         3.231409        -1.311619        -0.067420
 O         3.857055        -2.560707         0.084039
 C         3.719683         0.061299         0.460733
 O         3.523888         1.245513        -0.233679
 C         2.156144         1.361193        -0.500090
 C         2.504193        -0.573875         1.072374
 H        -0.231193         0.885918         1.100102
 H        -0.512164         0.276162        -0.541353
 H        -0.270816        -0.995870         0.637106
 H         1.344772        -2.121219        -0.800981
 H         2.048025        -0.856568        -1.954610
 H         4.345750        -2.766030        -0.749293
 H         4.680433        -0.009201         1.023645
 H         1.672960         2.261414        -0.069088
 H         1.856844         1.469374        -1.664082
 H         2.544802        -0.774096         2.208567
