19
Iteration:  3390
 C         0.024153         0.086468         0.357597
 C         1.532241         0.015134         0.069110
 C         1.936562        -1.207461        -0.910640
 C         3.198284        -1.338055        -0.023045
 O         4.004456        -2.440811        -0.017212
 C         3.775197        -0.004643         0.446508
 O         3.510248         1.223671        -0.233264
 C         2.150750         1.241067        -0.594824
 C         2.564082        -0.489975         1.097948
 H        -0.325246         0.915228         0.988353
 H        -0.567642         0.190141        -0.621748
 H        -0.267441        -0.868785         0.922799
 H         1.357711        -2.058183        -0.799651
 H         1.982861        -0.813515        -1.922842
 H         3.410062        -3.157915         0.075234
 H         4.852562         0.052289         0.877354
 H         1.675982         2.140860        -0.257034
 H         2.110116         1.296066        -1.796657
 H         2.505640        -0.652249         2.191628
