19
Iteration:   554
 C        -0.014583        -0.075494         0.283723
 C         1.538770         0.132989         0.006375
 C         2.014663        -1.015355        -1.002538
 C         3.101269        -1.389765        -0.007339
 O         3.930091        -2.518406         0.135585
 C         3.693586        -0.086302         0.386990
 O         3.601940         1.047279        -0.427904
 C         2.218394         1.456541        -0.351437
 C         2.459493        -0.489383         1.099589
 H        -0.318274         0.319500         1.266161
 H        -0.592046         0.378918        -0.597983
 H        -0.135316        -1.114709         0.373871
 H         1.306247        -1.765135        -1.176408
 H         2.356391        -0.548521        -2.002143
 H         4.849485        -2.262563         0.278558
 H         4.619917        -0.160659         0.968777
 H         2.151110         2.208398         0.497003
 H         1.889872         1.874085        -1.220171
 H         2.354064        -0.602744         2.259145
