19
Iteration:  3613
 C        -0.007088        -0.132792         0.304094
 C         1.524788         0.054888         0.039689
 C         2.056916        -1.029127        -0.926919
 C         3.153782        -1.315295         0.042513
 O         3.915102        -2.534445         0.166062
 C         3.767057         0.008868         0.244322
 O         3.535967         1.148784        -0.477053
 C         2.124291         1.360693        -0.325473
 C         2.603190        -0.422468         1.136263
 H        -0.443372         0.364525         1.289176
 H        -0.514928         0.319140        -0.471591
 H        -0.244083        -1.181775         0.217116
 H         1.423592        -1.862947        -1.033052
 H         2.231631        -0.756529        -1.960472
 H         3.380631        -3.286318         0.001140
 H         4.784220        -0.039229         0.648371
 H         1.980242         2.242914         0.267565
 H         1.794804         1.772802        -1.389151
 H         2.855450        -0.501783         2.192920
