19
Iteration:   588
 C         0.064403         0.101262         0.280472
 C         1.533411        -0.019567        -0.055039
 C         1.986998        -1.158041        -0.957310
 C         3.217621        -1.356056        -0.082115
 O         3.868363        -2.556727         0.106304
 C         3.729867         0.028622         0.481996
 O         3.590950         1.212058        -0.254999
 C         2.148751         1.338990        -0.432989
 C         2.509714        -0.517352         1.086800
 H        -0.174727         0.906333         1.052779
 H        -0.573437         0.349114        -0.666189
 H        -0.267935        -0.837445         0.491813
 H         1.397137        -2.049753        -0.883300
 H         2.080066        -0.884302        -2.073474
 H         4.379577        -2.750524        -0.655689
 H         4.742876         0.016944         0.981024
 H         1.842897         2.030068         0.404539
 H         1.784220         1.702569        -1.328320
 H         2.290026        -0.788951         2.158594
