19
Iteration:  4495charge 0 multiplicity 1
 C        -0.031424         0.155258         0.322251
 C         1.536045        -0.092644         0.043803
 C         1.964096        -1.202103        -0.871575
 C         3.271818        -1.280854        -0.014241
 O         3.912548        -2.518063         0.045132
 C         3.849275         0.018580         0.412680
 O         3.521041         1.214419        -0.392554
 C         2.069201         1.226588        -0.403406
 C         2.610718        -0.466662         1.085829
 H        -0.137581         0.971344         0.989047
 H        -0.600488         0.222773        -0.701108
 H        -0.873749        -0.678893         0.688552
 H         1.422606        -2.228032        -0.472229
 H         1.797764        -1.014876        -1.917794
 H         4.374240        -2.566565        -0.874353
 H         4.841239         0.033524         0.851518
 H         1.793210         2.027173         0.322375
 H         1.775008         1.665736        -1.376817
 H         2.575826        -0.677999         2.105992
