19
Iteration:    92charge 0 multiplicity 1
 C        -0.049370         0.119808         0.282970
 C         1.467479        -0.006078        -0.042066
 C         2.018405        -1.180616        -0.879579
 C         3.222653        -1.313373        -0.041116
 O         3.932689        -2.486576         0.050572
 C         3.794853        -0.013717         0.502597
 O         3.622215         1.135159        -0.340358
 C         2.174235         1.307822        -0.400992
 C         2.427401        -0.472855         1.048060
 H        -0.161520         0.773766         1.130374
 H        -0.626134         0.552660        -0.528225
 H        -0.492662        -0.953711         0.512678
 H         1.397091        -2.174417        -0.625887
 H         2.016880        -1.099523        -1.927748
 H         4.687307        -2.329390        -0.500611
 H         4.696601        -0.267175         1.106503
 H         1.744852         2.146759         0.204976
 H         2.034582         1.659343        -1.496254
 H         2.296327        -0.782824         2.081257
