19
Iteration:  1711charge 0 multiplicity 1
 C         0.038854         0.034426         0.263139
 C         1.476535        -0.081807         0.036973
 C         1.931496        -1.206275        -0.935560
 C         3.186527        -1.299555        -0.003897
 O         3.916958        -2.483849         0.095027
 C         3.832674         0.026964         0.380596
 O         3.610699         1.275536        -0.271917
 C         2.111187         1.326671        -0.464059
 C         2.546235        -0.515138         1.138797
 H        -0.208566         0.736423         1.061821
 H        -0.398577         0.449935        -0.768632
 H        -0.442868        -0.914767         0.560802
 H         1.448599        -2.093421        -0.812766
 H         2.035658        -0.984160        -2.028159
 H         4.106671        -2.808537        -0.779431
 H         4.874778        -0.138469         0.884709
 H         1.611730         2.264983         0.057997
 H         1.956768         1.421514        -1.486150
 H         2.233095        -0.824133         2.116930
