19
Iteration:  2785
 C         0.064907         0.036671         0.411956
 C         1.480603        -0.014826         0.001667
 C         1.887908        -1.214047        -0.808787
 C         3.272553        -1.287497        -0.006637
 O         3.990998        -2.495450        -0.068638
 C         3.779537         0.059590         0.444446
 O         3.526497         1.281513        -0.227980
 C         2.168151         1.227863        -0.647148
 C         2.573140        -0.489573         1.101665
 H        -0.081539         0.786785         1.093760
 H        -0.511714         0.457013        -0.593484
 H        -0.374517        -0.893143         0.808190
 H         1.419970        -2.138363        -0.670942
 H         1.941109        -1.041593        -2.024149
 H         3.308592        -3.120569        -0.253596
 H         4.633248         0.087286         1.155970
 H         1.634585         2.193289        -0.228880
 H         1.937451         1.117290        -1.767333
 H         2.240579        -0.641352         2.220807
