19
Iteration:  1050
 C         0.002373        -0.089699         0.310255
 C         1.496763         0.006518        -0.061139
 C         2.022658        -1.161828        -1.125853
 C         3.146907        -1.297217        -0.107606
 O         3.774826        -2.467753         0.224646
 C         3.825527        -0.054841         0.384004
 O         3.681416         1.251904        -0.222115
 C         2.193013         1.410680        -0.329500
 C         2.509691        -0.481811         1.018850
 H        -0.145083         0.637991         1.193386
 H        -0.641019        -0.000019        -0.461113
 H        -0.157841        -1.142468         0.693547
 H         1.375306        -2.167385        -1.040581
 H         2.184342        -0.889252        -2.145346
 H         4.082542        -2.874159        -0.591201
 H         4.708011        -0.180861         1.010924
 H         1.710308         1.964229         0.503686
 H         1.967710         1.973133        -1.340262
 H         2.391650        -0.646534         2.032368
