19
Iteration:  2145charge 0 multiplicity 1
 C         0.070298         0.267539         0.259225
 C         1.463161        -0.061650        -0.031918
 C         2.017978        -1.239194        -0.888835
 C         3.247330        -1.343794         0.052263
 O         4.119617        -2.430712        -0.107726
 C         3.727862        -0.057889         0.490943
 O         3.481333         1.096943        -0.360343
 C         2.096326         1.340255        -0.417010
 C         2.370699        -0.597991         1.119560
 H         0.161003         1.163137         1.040407
 H        -0.646144         0.606749        -0.446956
 H        -0.385268        -0.450510         0.850877
 H         1.362847        -2.194703        -0.491297
 H         1.993001        -1.248919        -1.967322
 H         4.952840        -2.140384         0.196101
 H         4.589554         0.087888         1.047757
 H         1.696941         2.031261         0.334336
 H         1.784633         1.768194        -1.314800
 H         2.091797        -0.783994         2.175280
