19
Iteration:  1140charge 0 multiplicity 1
 C         0.055111         0.063543         0.251342
 C         1.547800         0.041447         0.004229
 C         1.990130        -1.219171        -0.880876
 C         3.218932        -1.364906        -0.071509
 O         3.887105        -2.565882         0.033382
 C         3.734649         0.002941         0.444008
 O         3.526035         1.204465        -0.248544
 C         2.170779         1.398371        -0.416085
 C         2.499011        -0.542202         1.035276
 H        -0.071751         0.787446         1.186414
 H        -0.555530         0.400132        -0.640642
 H        -0.338016        -0.903178         0.398098
 H         1.232439        -1.980620        -0.634608
 H         1.992735        -0.828292        -1.967758
 H         4.858181        -2.455308        -0.183385
 H         4.723237         0.006533         0.936188
 H         1.895805         2.289329         0.270923
 H         2.031663         1.689896        -1.500222
 H         2.159240        -0.595176         2.140711
