19
Iteration:  3809
 C         0.129742        -0.092487         0.392089
 C         1.527821         0.047846        -0.037258
 C         2.031908        -1.085987        -1.035455
 C         3.217605        -1.337503        -0.100907
 O         3.834452        -2.544511         0.211427
 C         3.811066         0.010901         0.381117
 O         3.488813         1.184808        -0.452408
 C         2.026627         1.434430        -0.358307
 C         2.648286        -0.540262         1.034986
 H        -0.148971         0.815549         1.113816
 H        -0.527805         0.088349        -0.438203
 H        -0.093613        -1.116369         0.833904
 H         1.348723        -1.915857        -0.933780
 H         2.418758        -0.617500        -2.056326
 H         3.215900        -2.821306         0.852869
 H         4.843601         0.050685         0.702570
 H         1.871305         2.015553         0.569876
 H         1.713706         1.898602        -1.282164
 H         2.608124        -0.692371         2.126849
