19
Iteration:   779charge 0 multiplicity 1
 C         0.108617        -0.011179         0.315360
 C         1.537102         0.083868        -0.010153
 C         1.948600        -1.089816        -0.963291
 C         3.099611        -1.386419        -0.047324
 O         3.963185        -2.499671        -0.025963
 C         3.668904        -0.036585         0.473660
 O         3.574657         1.176634        -0.250883
 C         2.247588         1.314101        -0.486658
 C         2.421095        -0.500460         1.108331
 H         0.015736         0.871940         1.050509
 H        -0.429105         0.062152        -0.644897
 H        -0.182073        -0.956950         0.928588
 H         1.266912        -2.011842        -0.969496
 H         2.184800        -0.809138        -2.018276
 H         4.517554        -2.402454         0.816746
 H         4.669817         0.009853         0.924987
 H         1.853946         2.266173        -0.051239
 H         2.010063         1.376134        -1.555045
 H         2.244132        -0.526743         2.222463
