19
Iteration:  4377charge 0 multiplicity 1
 C         0.040722        -0.050656         0.361198
 C         1.550113         0.015780         0.066302
 C         2.064175        -1.153822        -0.918766
 C         3.182542        -1.350446        -0.017378
 O         3.734394        -2.590302         0.104158
 C         3.847612         0.055704         0.224924
 O         3.560523         1.280758        -0.442940
 C         2.040594         1.336837        -0.332894
 C         2.661469        -0.438372         1.064104
 H        -0.270068         0.551440         1.215977
 H        -0.539655         0.078294        -0.640348
 H        -0.378810        -1.084314         0.724433
 H         1.292202        -2.038153        -0.943943
 H         2.385320        -0.806266        -1.885182
 H         4.423893        -2.737287         0.783590
 H         4.858277         0.135018         0.662412
 H         1.700861         2.160878         0.284750
 H         1.673808         1.579656        -1.290385
 H         2.623307        -0.669002         2.090229
