19
Iteration:  3050charge 0 multiplicity 1
 C         0.051699        -0.149765         0.411750
 C         1.558272         0.065787        -0.042643
 C         2.031323        -0.973878        -1.109007
 C         3.137714        -1.364331         0.005372
 O         3.950719        -2.504115         0.284308
 C         3.773395        -0.058450         0.284809
 O         3.510706         1.171122        -0.589077
 C         2.111454         1.474385        -0.223161
 C         2.563834        -0.522432         1.042228
 H        -0.393864         0.465070         1.227146
 H        -0.577867         0.082412        -0.611711
 H        -0.086249        -1.142207         0.837363
 H         1.417275        -1.834799        -1.228902
 H         2.508379        -0.624185        -2.119898
 H         3.461763        -3.292132         0.598985
 H         4.715464        -0.132754         0.911363
 H         1.943252         1.995790         0.741407
 H         1.714427         1.941725        -1.125296
 H         2.324583        -0.587229         2.162328
