19
Iteration:  3738charge 0 multiplicity 1
 C        -0.015913         0.229606         0.307391
 C         1.475355        -0.101307         0.042160
 C         1.969077        -1.266636        -0.789183
 C         3.281916        -1.329019         0.039784
 O         4.092032        -2.404867        -0.174124
 C         3.697715         0.023502         0.568525
 O         3.572284         1.140500        -0.387332
 C         2.085711         1.234032        -0.525421
 C         2.482692        -0.478345         1.169823
 H        -0.073777         0.981455         1.004327
 H        -0.523397         0.720275        -0.630107
 H        -0.590853        -0.650178         0.549335
 H         1.459208        -2.240206        -0.510713
 H         2.090999        -1.067985        -1.810088
 H         3.590795        -3.158644        -0.419059
 H         4.693474        -0.086601         1.173171
 H         1.758015         2.081595         0.169795
 H         2.001927         1.451466        -1.589435
 H         2.392754        -0.348402         2.242485
