19
Iteration:  2014
 C         0.062302        -0.028125         0.322851
 C         1.493436         0.032047         0.013957
 C         2.006309        -1.045576        -1.010345
 C         3.198676        -1.318703        -0.069098
 O         3.866401        -2.556823         0.200419
 C         3.807291        -0.000462         0.405843
 O         3.517044         1.156563        -0.398643
 C         2.083037         1.387554        -0.376844
 C         2.572626        -0.558087         1.048677
 H        -0.302463         0.699487         1.179891
 H        -0.422862         0.125542        -0.684709
 H        -0.159715        -0.982833         0.724462
 H         1.323695        -1.948665        -1.188619
 H         2.292598        -0.544579        -1.874281
 H         4.747775        -2.517920        -0.177238
 H         4.737936         0.062200         0.963926
 H         1.778647         2.151228         0.424942
 H         1.907233         1.618200        -1.373945
 H         2.409941        -0.691419         2.115915
