19
Iteration:  4806charge 0 multiplicity 1
 C         0.099110         0.015769         0.317236
 C         1.506151         0.014226        -0.017859
 C         1.967414        -1.225002        -0.916653
 C         3.180049        -1.351869        -0.053055
 O         3.980328        -2.482129        -0.020740
 C         3.755329        -0.019267         0.422786
 O         3.542447         1.248713        -0.326814
 C         2.154685         1.363343        -0.361160
 C         2.494553        -0.451209         1.059394
 H        -0.130779         0.975181         0.912988
 H        -0.514317         0.047767        -0.577979
 H        -0.134653        -0.864941         0.798784
 H         1.368032        -2.121544        -0.856486
 H         2.044738        -1.155504        -2.069275
 H         3.611133        -3.071857         0.728671
 H         4.706078        -0.095415         0.980527
 H         1.901463         2.078891         0.416757
 H         1.787181         1.714071        -1.395995
 H         2.253337        -0.722176         2.164647
