19
Iteration:  1600
 C         0.070098         0.111702         0.328002
 C         1.526370        -0.053525         0.033554
 C         2.007968        -1.179416        -0.962193
 C         3.240866        -1.327273        -0.020700
 O         3.891788        -2.538700         0.035485
 C         3.765933         0.018965         0.503197
 O         3.493125         1.259975        -0.195514
 C         2.089289         1.309465        -0.565107
 C         2.571816        -0.550551         1.088980
 H        -0.100755         0.993754         0.999463
 H        -0.302830         0.405663        -0.717480
 H        -0.518009        -0.708538         0.606639
 H         1.464365        -2.117990        -0.807280
 H         2.156320        -1.054423        -2.034562
 H         4.198176        -2.741107        -0.899136
 H         4.715491         0.041961         0.894677
 H         1.736852         2.205751         0.008420
 H         2.016712         1.358034        -1.578002
 H         2.343298        -0.681343         2.188939
