19
Iteration:  3824
 C         0.136538        -0.128929         0.394450
 C         1.586896        -0.027560        -0.009086
 C         2.113869        -1.072433        -1.049484
 C         3.229186        -1.335790        -0.014466
 O         3.751641        -2.669333         0.185518
 C         3.821745         0.113672         0.261330
 O         3.469546         1.242360        -0.472054
 C         2.090414         1.428029        -0.263325
 C         2.590786        -0.414071         1.013389
 H        -0.138759         0.719584         1.184014
 H        -0.607073        -0.098679        -0.442040
 H        -0.040325        -1.050234         0.865739
 H         1.379625        -1.882721        -1.160608
 H         2.267509        -0.876232        -2.107442
 H         3.357832        -3.186043         0.922502
 H         4.741784         0.222584         0.904889
 H         1.828010         2.049016         0.554520
 H         1.633911         1.924749        -1.232958
 H         2.345785        -0.550088         2.050149
