19
Iteration:  1725
 C         0.058754         0.128830         0.296334
 C         1.561725         0.011496         0.019350
 C         1.899858        -1.266853        -0.871768
 C         3.169028        -1.349670        -0.093809
 O         4.032653        -2.440330         0.045502
 C         3.674625         0.014337         0.501861
 O         3.523253         1.233024        -0.188301
 C         2.194493         1.259243        -0.574801
 C         2.533864        -0.538562         1.084705
 H        -0.211555         0.874862         1.004919
 H        -0.501422         0.426075        -0.593769
 H        -0.400443        -0.883172         0.653184
 H         1.115656        -2.029551        -0.646369
 H         1.983867        -1.108268        -1.968486
 H         4.171224        -2.766943        -0.909884
 H         4.708255        -0.007047         0.930019
 H         1.778187         2.214817        -0.131913
 H         2.052474         1.435193        -1.644665
 H         2.443944        -0.747213         2.217785
