19
Iteration:  4754
 C         0.081124        -0.070457         0.320019
 C         1.545592         0.026657         0.035198
 C         2.092975        -0.979431        -1.020596
 C         3.193224        -1.425441         0.050203
 O         3.937130        -2.520133         0.095010
 C         3.783195         0.044544         0.382385
 O         3.498351         1.102161        -0.471635
 C         2.019417         1.394755        -0.344484
 C         2.522789        -0.500291         1.098012
 H        -0.138664         0.579932         1.241033
 H        -0.357284         0.460026        -0.550282
 H        -0.115203        -1.183823         0.508094
 H         1.225316        -1.575006        -1.282195
 H         2.587563        -0.541661        -1.887840
 H         3.315115        -3.245692         0.324966
 H         4.721534         0.049233         0.917779
 H         1.992757         2.157001         0.475482
 H         1.654258         1.710626        -1.272430
 H         2.426971        -0.416671         2.254805
