19
Iteration:  4755charge 0 multiplicity 1
 C         0.079809        -0.065405         0.323192
 C         1.541562         0.025140         0.044783
 C         2.104044        -0.970358        -1.020398
 C         3.194171        -1.429763         0.057001
 O         3.936443        -2.518945         0.090050
 C         3.780997         0.042036         0.376846
 O         3.499218         1.093347        -0.471449
 C         2.014519         1.402145        -0.349830
 C         2.522560        -0.497469         1.099359
 H        -0.164959         0.567235         1.199762
 H        -0.351788         0.470245        -0.558166
 H        -0.111796        -1.211665         0.515536
 H         1.195313        -1.587585        -1.302710
 H         2.586627        -0.545232        -1.891993
 H         3.344532        -3.210722         0.347632
 H         4.729079         0.053325         0.933884
 H         1.986365         2.153417         0.484156
 H         1.664776         1.691115        -1.288149
 H         2.439127        -0.455635         2.243466
