19
Iteration:  2784charge 0 multiplicity 1
 C         0.069496         0.040731         0.404576
 C         1.482745        -0.017495        -0.001090
 C         1.879744        -1.208956        -0.804933
 C         3.271324        -1.278743        -0.004916
 O         4.002234        -2.494506        -0.076075
 C         3.779246         0.052093         0.442532
 O         3.520570         1.274114        -0.221727
 C         2.168869         1.230672        -0.651423
 C         2.565759        -0.487667         1.109192
 H        -0.101441         0.814280         1.107031
 H        -0.471571         0.456441        -0.586191
 H        -0.402038        -0.902445         0.802299
 H         1.403770        -2.162895        -0.642000
 H         1.946713        -1.064560        -2.003684
 H         3.287159        -3.136324        -0.237179
 H         4.614989         0.091109         1.130838
 H         1.636403         2.200803        -0.243210
 H         1.956952         1.097868        -1.747984
 H         2.307144        -0.633574         2.217633
