19
Iteration:  3579
 C         0.072257         0.121072         0.322359
 C         1.460638        -0.018639        -0.041650
 C         1.955295        -1.239240        -0.874999
 C         3.218061        -1.313144        -0.008497
 O         4.047327        -2.449454        -0.020689
 C         3.686521         0.046346         0.440730
 O         3.546391         1.142374        -0.370503
 C         2.156451         1.339934        -0.450730
 C         2.519863        -0.498414         1.108348
 H        -0.140988         0.918447         1.129649
 H        -0.540372         0.307866        -0.491315
 H        -0.335005        -0.755784         0.881070
 H         1.456950        -2.056561        -0.448491
 H         2.039591        -1.255370        -1.968509
 H         3.575603        -3.249465         0.276108
 H         4.719154         0.099412         0.957594
 H         1.787974         2.021487         0.304077
 H         1.773026         1.507628        -1.557061
 H         2.481229        -0.679282         2.177510
