19
Iteration:  2364
 C         0.068830         0.143634         0.413539
 C         1.502568         0.002889        -0.095202
 C         1.905803        -1.232859        -0.966385
 C         3.167669        -1.377590        -0.114039
 O         4.117645        -2.355390        -0.017595
 C         3.643388        -0.035140         0.552331
 O         3.581064         1.243241        -0.178283
 C         2.145074         1.233834        -0.578777
 C         2.454904        -0.572993         1.065196
 H        -0.072444         1.155187         1.024049
 H        -0.599711         0.183275        -0.333674
 H        -0.199246        -0.633171         1.067643
 H         1.176330        -2.104563        -0.869281
 H         2.041327        -1.037254        -1.938563
 H         4.187805        -2.842982         0.862933
 H         4.735455        -0.236130         0.881574
 H         1.731065         2.195487        -0.246078
 H         2.309847         1.182972        -1.666096
 H         1.995193        -0.808152         1.986252
