19
Iteration:  4326
 C         0.037958         0.100005         0.424913
 C         1.505936         0.000313         0.000956
 C         2.042118        -1.188147        -0.912776
 C         3.151381        -1.382309         0.122604
 O         4.005150        -2.496639        -0.095707
 C         3.731685        -0.033206         0.433811
 O         3.522560         1.111345        -0.443792
 C         2.158385         1.326946        -0.485606
 C         2.400667        -0.476737         1.137977
 H        -0.075647         0.902156         1.223797
 H        -0.662753         0.217615        -0.328792
 H        -0.219504        -0.669665         1.012367
 H         1.537424        -2.069564        -0.870021
 H         2.245950        -0.849588        -1.961776
 H         4.999525        -2.235801        -0.055091
 H         4.656065         0.170628         0.902329
 H         1.929042         2.105519         0.318307
 H         1.709242         1.783568        -1.495119
 H         2.233609        -0.170003         2.171942
