19
Iteration:  3494charge 0 multiplicity 1
 C         0.016931        -0.050536         0.327978
 C         1.493925        -0.012756        -0.038684
 C         1.953876        -1.179349        -0.825247
 C         3.228232        -1.358787         0.000241
 O         3.935233        -2.504765         0.033327
 C         3.807323        -0.023907         0.400594
 O         3.573163         1.260498        -0.406250
 C         2.129346         1.356660        -0.440835
 C         2.556651        -0.392906         1.100580
 H        -0.263638         0.635769         1.305454
 H        -0.477986         0.270193        -0.615095
 H        -0.256131        -1.065356         0.516836
 H         1.374589        -2.226411        -0.861627
 H         2.155464        -1.037918        -1.924169
 H         3.249821        -3.181744         0.260144
 H         4.867625         0.106145         0.836291
 H         1.806241         2.149699         0.352849
 H         1.854002         1.665080        -1.419908
 H         2.464998        -0.268527         2.173516
