19
Iteration:  4179charge 0 multiplicity 1
 C         0.070641        -0.107474         0.357834
 C         1.534967         0.057459         0.113390
 C         2.023675        -1.119060        -0.949823
 C         3.150455        -1.334998         0.011940
 O         3.822673        -2.565082         0.114176
 C         3.771410         0.026750         0.337606
 O         3.547036         1.168579        -0.490822
 C         2.126337         1.395172        -0.350026
 C         2.604445        -0.450304         1.031244
 H        -0.257904         0.637673         0.974239
 H        -0.554286         0.172192        -0.506824
 H        -0.136249        -1.138976         0.790668
 H         1.103673        -1.875040        -0.894303
 H         2.212352        -0.880778        -1.925880
 H         4.741901        -2.409793         0.053042
 H         4.784683        -0.011765         0.610167
 H         1.906112         2.081057         0.509999
 H         1.676146         1.763986        -1.372382
 H         2.360236        -0.413797         2.116542
