19
Iteration:   257
 C        -0.007473         0.194107         0.198341
 C         1.466007         0.006345        -0.031491
 C         1.901965        -1.227185        -0.878055
 C         3.144694        -1.416716        -0.014723
 O         4.097712        -2.547480         0.069527
 C         3.746043        -0.084824         0.399645
 O         3.585532         1.190628        -0.337040
 C         2.194994         1.423678        -0.303839
 C         2.443714        -0.535347         1.058123
 H        -0.244597         0.742947         1.093509
 H        -0.598201         0.644450        -0.630943
 H        -0.383903        -0.902312         0.230218
 H         1.206431        -2.159460        -0.706749
 H         2.023314        -1.064336        -1.909214
 H         4.849048        -2.290893        -0.569507
 H         4.669911        -0.072363         1.041204
 H         1.873213         2.039241         0.553238
 H         1.834360         2.053923        -1.178392
 H         2.301163        -0.415036         2.179123
