19
Iteration:  4150charge 0 multiplicity 1
 C        -0.006660         0.087126         0.371084
 C         1.494606        -0.003172         0.023936
 C         1.980577        -1.247023        -0.837314
 C         3.261318        -1.300548        -0.051219
 O         3.913301        -2.567893         0.011938
 C         3.806147         0.013437         0.365895
 O         3.541142         1.208582        -0.380230
 C         2.088966         1.331967        -0.424499
 C         2.568190        -0.459802         1.033624
 H        -0.186075         1.012076         1.102713
 H        -0.621739         0.321231        -0.481239
 H        -0.461004        -0.825697         0.756982
 H         1.372271        -2.054103        -0.523054
 H         1.863516        -1.293982        -2.013390
 H         4.832294        -2.469982         0.420038
 H         4.899357        -0.033648         0.679026
 H         1.799192         2.042379         0.393330
 H         1.806104         1.879865        -1.351658
 H         2.245732        -0.700836         2.081867
