19
Iteration:  3001charge 0 multiplicity 1
 C        -0.016793         0.019608         0.271369
 C         1.510146        -0.026177         0.129764
 C         2.032780        -1.119031        -0.803081
 C         3.268905        -1.281263         0.060317
 O         3.965767        -2.505426        -0.057132
 C         3.802913         0.083747         0.418525
 O         3.548716         1.142161        -0.426724
 C         2.063712         1.286764        -0.514988
 C         2.524719        -0.461144         1.150465
 H        -0.283287         0.571114         1.197550
 H        -0.480630         0.477094        -0.588475
 H        -0.389768        -1.010387         0.497972
 H         1.290424        -1.992785        -0.788208
 H         2.248200        -0.862301        -1.802249
 H         3.334993        -3.243622        -0.025654
 H         4.775642         0.033196         0.884106
 H         1.877519         2.191125         0.129341
 H         1.806355         1.455493        -1.580008
 H         2.497740        -0.638332         2.223623
