19
Iteration:  2019
 C         0.115639        -0.047303         0.324801
 C         1.514748         0.032502         0.021997
 C         2.046508        -0.998712        -0.987496
 C         3.194021        -1.305620        -0.091925
 O         3.813703        -2.566635         0.232338
 C         3.794832         0.009571         0.400692
 O         3.504435         1.161284        -0.414193
 C         2.065656         1.371501        -0.371422
 C         2.581456        -0.579755         1.047187
 H        -0.208066         0.600646         1.048854
 H        -0.539002         0.022393        -0.612858
 H        -0.067337        -1.097579         0.738849
 H         1.381507        -1.760883        -1.266104
 H         2.428187        -0.428517        -1.944988
 H         4.693397        -2.672170        -0.203671
 H         4.755416         0.130039         0.946961
 H         1.910923         2.108918         0.377696
 H         1.604858         1.683204        -1.440259
 H         2.326817        -0.695296         2.101250
