19
Iteration:  4425
 C         0.016127        -0.114472         0.546960
 C         1.461061        -0.014908         0.019751
 C         2.089243        -1.052732        -0.999927
 C         3.175331        -1.241924        -0.006027
 O         3.800202        -2.513666         0.036230
 C         3.809295         0.010094         0.386680
 O         3.584221         1.118332        -0.532790
 C         2.145236         1.367422        -0.468940
 C         2.523318        -0.479058         1.120231
 H        -0.174666         0.641136         1.463112
 H        -0.626714         0.125178        -0.237231
 H        -0.323573        -1.061406         0.784917
 H         1.572399        -1.935070        -0.988746
 H         2.412074        -0.762966        -2.032219
 H         4.373561        -2.597876         0.846685
 H         4.749365         0.033732         0.964230
 H         2.021533         2.169366         0.172087
 H         1.904430         1.802347        -1.525893
 H         2.437302        -0.590189         2.256878
