19
Iteration:  2478charge 0 multiplicity 1
 C         0.111637        -0.087245         0.447741
 C         1.481424         0.057620        -0.073471
 C         2.121957        -1.093405        -1.101284
 C         3.169522        -1.353089        -0.016963
 O         3.876477        -2.528446         0.141663
 C         3.776325        -0.048991         0.345528
 O         3.559043         1.189453        -0.406897
 C         2.070946         1.453128        -0.347181
 C         2.492494        -0.484023         1.055968
 H        -0.107814         0.577460         1.135770
 H        -0.602378         0.059919        -0.496571
 H         0.021760        -1.130347         0.873458
 H         1.476223        -1.880931        -1.160020
 H         2.314008        -0.746769        -2.150320
 H         3.834918        -2.807075         1.120034
 H         4.782487         0.019583         0.865633
 H         1.819625         2.084418         0.510308
 H         1.705102         1.774204        -1.396319
 H         2.234774        -0.657959         2.166409
