19
Iteration:   590
 C         0.096702         0.118542         0.263063
 C         1.517109        -0.033083        -0.044063
 C         1.990646        -1.145838        -0.961580
 C         3.234644        -1.335818        -0.089675
 O         3.859558        -2.562774         0.110647
 C         3.723151         0.035766         0.497867
 O         3.577502         1.214173        -0.255585
 C         2.152918         1.320501        -0.424975
 C         2.513982        -0.532217         1.084188
 H        -0.172494         0.935253         1.069814
 H        -0.568102         0.346650        -0.636043
 H        -0.290024        -0.862590         0.554139
 H         1.370771        -2.087897        -0.821357
 H         2.064668        -0.903470        -2.062822
 H         4.333592        -2.786201        -0.715176
 H         4.720523         0.079826         0.997966
 H         1.828934         2.047966         0.369125
 H         1.762459         1.704145        -1.445772
 H         2.346160        -0.836347         2.076377
