19
Iteration:  1542charge 0 multiplicity 1
 C         0.069206         0.171083         0.270645
 C         1.465453         0.003491        -0.055897
 C         1.859187        -1.209141        -0.864713
 C         3.160344        -1.318096        -0.048325
 O         4.133192        -2.364069        -0.000558
 C         3.677325        -0.050907         0.503970
 O         3.593866         1.127398        -0.238174
 C         2.218997         1.235978        -0.484720
 C         2.418618        -0.495253         1.115999
 H        -0.111553         0.856201         1.230969
 H        -0.488803         0.468986        -0.590503
 H        -0.180979        -0.897958         0.658452
 H         1.211503        -2.140203        -0.523897
 H         1.906711        -1.136187        -1.913891
 H         4.085810        -2.713582        -0.902639
 H         4.749747        -0.238501         0.920322
 H         1.758360         2.136815         0.011299
 H         1.983518         1.541760        -1.447962
 H         2.168983        -0.935906         2.096754
