19
Iteration:  3439charge 0 multiplicity 1
 C         0.019221        -0.075626         0.411190
 C         1.481082         0.003749        -0.035828
 C         2.108250        -1.028786        -1.085756
 C         3.223801        -1.325682        -0.039811
 O         3.930339        -2.466458         0.225639
 C         3.769504         0.015157         0.321328
 O         3.555047         1.067851        -0.542886
 C         2.096659         1.357677        -0.236914
 C         2.508679        -0.452330         1.029752
 H        -0.167316         0.600012         1.396176
 H        -0.647043         0.355623        -0.332701
 H        -0.273540        -1.081618         0.696900
 H         1.297933        -1.907006        -1.095224
 H         2.560375        -0.725695        -2.081299
 H         3.233006        -3.064920         0.669987
 H         4.726836         0.227898         0.811030
 H         2.146045         2.100777         0.634053
 H         1.705695         1.836187        -1.088986
 H         2.309012        -0.700239         2.045080
