19
Iteration:  2591charge 0 multiplicity 1
 C        -0.025692         0.125022         0.344812
 C         1.503464        -0.021272         0.032442
 C         2.029259        -1.158995        -0.916034
 C         3.215474        -1.354295        -0.012400
 O         3.977707        -2.490646         0.028964
 C         3.791664         0.012515         0.452009
 O         3.514490         1.149261        -0.448046
 C         2.080145         1.252116        -0.411204
 C         2.520065        -0.529556         1.091452
 H        -0.055963         0.994305         1.087934
 H        -0.578387         0.575503        -0.532468
 H        -0.573776        -0.658154         0.782396
 H         1.236507        -1.905106        -0.900191
 H         2.122572        -0.750572        -1.917294
 H         4.897020        -2.443803         0.192695
 H         4.723444         0.068927         0.901106
 H         1.851202         2.058103         0.362066
 H         1.655627         1.457537        -1.445675
 H         2.610677        -0.654699         2.153765
