19
Iteration:  3610
 C        -0.004974        -0.111541         0.308372
 C         1.511264         0.045644         0.048770
 C         2.043123        -1.045156        -0.898439
 C         3.156343        -1.318764         0.023256
 O         3.921409        -2.527578         0.152523
 C         3.755821         0.017252         0.255220
 O         3.559717         1.152551        -0.462243
 C         2.130842         1.361575        -0.341749
 C         2.606711        -0.409197         1.114321
 H        -0.441364         0.278680         1.190362
 H        -0.551335         0.361405        -0.549063
 H        -0.314731        -1.255106         0.278071
 H         1.410389        -1.935092        -0.966541
 H         2.232568        -0.835657        -1.989394
 H         3.412916        -3.362519         0.005574
 H         4.858622        -0.017575         0.644985
 H         1.973945         2.211105         0.346566
 H         1.742949         1.757468        -1.358286
 H         2.730800        -0.480000         2.196033
