19
Iteration:  4961
 C         0.027218        -0.008725         0.409930
 C         1.500325         0.031592        -0.036064
 C         2.097033        -1.105195        -1.045340
 C         3.245043        -1.343367         0.017736
 O         3.945240        -2.591529         0.080990
 C         3.802479         0.023741         0.415425
 O         3.520877         1.199908        -0.377049
 C         2.074794         1.378974        -0.402609
 C         2.488460        -0.463221         1.025614
 H        -0.335191         0.816769         1.001219
 H        -0.757068        -0.043119        -0.363367
 H        -0.156175        -0.816338         1.033451
 H         1.367960        -1.937353        -0.877712
 H         2.498135        -0.701014        -2.019052
 H         3.433007        -3.299550         0.386153
 H         4.816354        -0.006679         0.711151
 H         1.778724         1.912328         0.494373
 H         1.784214         1.875373        -1.399630
 H         2.431409        -0.504299         2.105091
