19
Iteration:  1800charge 0 multiplicity 1
 C         0.006350         0.122542         0.380263
 C         1.507710        -0.007429        -0.029963
 C         1.953011        -1.227731        -0.920846
 C         3.236012        -1.346035        -0.062693
 O         3.985503        -2.563514        -0.019519
 C         3.723354        -0.016032         0.436582
 O         3.549255         1.245978        -0.240399
 C         2.126184         1.303430        -0.534515
 C         2.526169        -0.455648         1.121572
 H        -0.394111         0.808232         1.063870
 H        -0.547596         0.376645        -0.613583
 H        -0.390584        -0.917938         0.655735
 H         1.333073        -1.998597        -0.710391
 H         2.104777        -1.090145        -2.018424
 H         4.728708        -2.448717         0.550471
 H         4.709320         0.055821         0.949848
 H         1.729483         2.297252        -0.099984
 H         2.057273         1.437312        -1.561754
 H         2.307084        -0.723127         2.214198
