19
Iteration:  4853charge 0 multiplicity 1
 C        -0.030711         0.111515         0.417744
 C         1.535932        -0.028548         0.075273
 C         2.009530        -1.075281        -0.974522
 C         3.255188        -1.290461        -0.121771
 O         4.012630        -2.471924         0.074200
 C         3.745849         0.026668         0.446413
 O         3.578750         1.174785        -0.310606
 C         2.103597         1.223858        -0.528036
 C         2.484862        -0.554736         1.152789
 H        -0.118795         0.923855         1.170102
 H        -0.584332         0.497254        -0.531432
 H        -0.493453        -0.981731         0.647647
 H         1.396267        -2.033381        -1.053902
 H         2.024007        -0.805944        -2.083281
 H         3.528709        -3.135912        -0.375497
 H         4.750842        -0.119787         0.882840
 H         1.646215         2.184706        -0.121911
 H         2.069965         1.196065        -1.597585
 H         2.215855        -0.727817         2.196425
