19
Iteration:  1801charge 0 multiplicity 1
 C        -0.000277         0.119711         0.372983
 C         1.504147        -0.000446        -0.031123
 C         1.952736        -1.229144        -0.927929
 C         3.237930        -1.348739        -0.058269
 O         3.982106        -2.567576        -0.019140
 C         3.734430        -0.010885         0.433590
 O         3.557704         1.249789        -0.245994
 C         2.123569         1.307944        -0.530232
 C         2.525693        -0.459215         1.126643
 H        -0.427245         0.781617         1.091261
 H        -0.541937         0.360816        -0.591703
 H        -0.388142        -0.945642         0.651395
 H         1.335274        -2.033514        -0.713428
 H         2.102709        -1.094121        -2.008866
 H         4.700615        -2.435094         0.565718
 H         4.669844         0.050055         0.934954
 H         1.747253         2.296794        -0.043505
 H         2.041448         1.419393        -1.542124
 H         2.324098        -0.672602         2.225524
