19
Iteration:  3817
 C         0.135567        -0.100868         0.398620
 C         1.589310         0.012336        -0.043990
 C         2.083220        -1.074119        -1.064613
 C         3.253914        -1.366959        -0.031553
 O         3.777660        -2.612301         0.196499
 C         3.799879         0.090540         0.280960
 O         3.478026         1.205908        -0.451103
 C         2.031810         1.417840        -0.308986
 C         2.627999        -0.475019         1.049779
 H        -0.068140         0.564743         1.093116
 H        -0.508484        -0.023880        -0.526842
 H        -0.105007        -1.055401         0.993078
 H         1.263133        -1.868101        -1.071463
 H         2.211890        -0.814248        -2.103275
 H         3.235284        -2.934956         0.893151
 H         4.682698         0.252349         0.806423
 H         1.890945         2.184048         0.590094
 H         1.789377         2.005790        -1.139897
 H         2.397803        -0.660036         2.124201
