19
Iteration:  2336
 C        -0.040962         0.138137         0.345066
 C         1.479799        -0.032232        -0.011525
 C         1.999677        -1.211036        -0.883077
 C         3.265686        -1.327045        -0.070364
 O         3.960470        -2.469859        -0.075164
 C         3.723810        -0.009543         0.465474
 O         3.513272         1.234661        -0.128770
 C         2.133886         1.265468        -0.626818
 C         2.551475        -0.555157         1.132776
 H        -0.216755         0.954541         0.943104
 H        -0.481683         0.490092        -0.731914
 H        -0.614106        -0.770717         0.776385
 H         1.486415        -2.133723        -0.754030
 H         2.139378        -0.980235        -2.079654
 H         4.735421        -2.530326         0.576621
 H         4.619388        -0.070748         0.985927
 H         1.737601         2.195034        -0.224400
 H         2.341986         1.202261        -1.713210
 H         2.446235        -0.621134         2.225641
