19
Iteration:  1213charge 0 multiplicity 1
 C         0.010308         0.144859         0.314009
 C         1.505130        -0.028611        -0.007394
 C         2.103773        -1.160520        -0.990208
 C         3.225255        -1.374323         0.040843
 O         3.874969        -2.630135        -0.039687
 C         3.787019         0.083447         0.545922
 O         3.499038         1.190918        -0.294858
 C         2.128968         1.337576        -0.415180
 C         2.496629        -0.507815         1.101554
 H        -0.155359         0.894551         1.059635
 H        -0.537988         0.312295        -0.564515
 H        -0.482314        -0.828636         0.650029
 H         1.566076        -2.189326        -1.103592
 H         2.484163        -0.797681        -1.898204
 H         4.619831        -2.655991        -0.728479
 H         4.730743         0.218534         1.129630
 H         1.746823         2.197152         0.031583
 H         1.908123         1.579501        -1.519762
 H         2.184436        -0.450164         2.185213
