19
Iteration:  3766
 C        -0.005258         0.117971         0.345443
 C         1.510603         0.008431         0.013076
 C         1.962100        -1.184328        -0.889912
 C         3.199417        -1.406063         0.031776
 O         4.107496        -2.389741        -0.038057
 C         3.706460        -0.052544         0.489517
 O         3.528362         1.103432        -0.428755
 C         2.138134         1.344503        -0.474683
 C         2.470554        -0.438942         1.148233
 H        -0.096970         0.645126         1.454423
 H        -0.642884         0.503329        -0.412325
 H        -0.272637        -0.928187         0.668178
 H         1.389006        -2.079362        -0.755003
 H         2.243232        -0.748235        -1.961575
 H         3.732845        -3.275026        -0.166297
 H         4.646411        -0.219100         0.957678
 H         1.858100         2.228372         0.045740
 H         2.017628         1.522971        -1.608681
 H         2.311128        -0.538632         2.238253
