19
Iteration:  3236
 C         0.169039        -0.353281         0.419142
 C         1.550341         0.060541        -0.012147
 C         2.035763        -1.029876        -1.005708
 C         3.201779        -1.304784        -0.039800
 O         3.686255        -2.527496         0.195819
 C         3.834230         0.050302         0.334280
 O         3.583054         1.175947        -0.463747
 C         2.065710         1.466584        -0.352556
 C         2.599284        -0.372495         0.981031
 H        -0.254965         0.162408         1.214001
 H        -0.566322        -0.294514        -0.497435
 H         0.187457        -1.353922         0.834023
 H         1.287193        -1.760622        -0.890319
 H         2.209654        -0.776831        -2.137073
 H         3.371090        -2.876154         1.066110
 H         4.773548        -0.014524         0.789140
 H         2.036455         2.308260         0.367305
 H         1.761927         1.706863        -1.444533
 H         2.548340        -0.478964         2.044267
