19
Iteration:   572
 C        -0.032425         0.004128         0.265219
 C         1.471330         0.043278        -0.021540
 C         2.014440        -1.155044        -1.021657
 C         3.084322        -1.384747         0.038926
 O         3.932356        -2.546242         0.110029
 C         3.784709        -0.111922         0.377893
 O         3.640148         1.188551        -0.309450
 C         2.186243         1.439030        -0.320893
 C         2.503471        -0.447708         1.051843
 H        -0.320649         0.547958         1.134738
 H        -0.639513         0.382897        -0.494891
 H        -0.488699        -1.052861         0.597902
 H         1.156712        -1.894112        -1.017848
 H         2.438285        -0.971343        -1.968392
 H         4.711762        -2.241351        -0.395762
 H         4.734259        -0.204168         0.839013
 H         1.870661         2.224746         0.343948
 H         2.115516         1.867716        -1.426589
 H         2.254718        -0.391202         2.103150
