19
Iteration:  1886charge 0 multiplicity 1
 C         0.034154        -0.133194         0.390163
 C         1.522223         0.009768        -0.076108
 C         2.070699        -1.121985        -1.066160
 C         3.198074        -1.355573        -0.021419
 O         3.750130        -2.577388         0.128455
 C         3.813138         0.062031         0.420714
 O         3.570062         1.228169        -0.363744
 C         2.104202         1.418501        -0.331483
 C         2.587240        -0.440074         1.024473
 H        -0.169094         0.622870         1.059019
 H        -0.710661        -0.094296        -0.490498
 H        -0.075073        -1.097397         0.804609
 H         1.352318        -1.870567        -1.195382
 H         2.383667        -0.836850        -2.143115
 H         4.527690        -2.561565         0.758098
 H         4.817276        -0.104263         0.781729
 H         1.804313         2.244280         0.294263
 H         1.746889         1.675595        -1.358182
 H         2.375756        -0.469108         2.126919
