19
Iteration:  4854
 C        -0.025360         0.110802         0.418974
 C         1.530014        -0.022444         0.071823
 C         2.015967        -1.071135        -0.976348
 C         3.251205        -1.290481        -0.117544
 O         4.008852        -2.467609         0.069569
 C         3.742137         0.030067         0.451981
 O         3.584195         1.165375        -0.311851
 C         2.098329         1.224030        -0.535069
 C         2.492788        -0.559497         1.161731
 H        -0.114816         0.901073         1.173018
 H        -0.587431         0.498576        -0.535401
 H        -0.515525        -1.004415         0.639743
 H         1.417796        -2.037360        -1.054243
 H         2.001533        -0.838702        -2.051055
 H         3.542764        -3.135135        -0.373682
 H         4.727020        -0.110089         0.880847
 H         1.650265         2.194650        -0.126108
 H         2.060625         1.225516        -1.579574
 H         2.216658        -0.715155         2.161866
