19
Iteration:   187charge 0 multiplicity 1
 C         0.154086        -0.090832         0.371084
 C         1.513754         0.094418        -0.145107
 C         2.026321        -1.072210        -1.037487
 C         3.175746        -1.376500         0.004857
 O         3.775878        -2.629188         0.177700
 C         3.751392        -0.007461         0.431194
 O         3.566996         1.228411        -0.275539
 C         2.171171         1.457284        -0.431385
 C         2.496379        -0.496128         1.030667
 H        -0.098672         0.633144         1.178129
 H        -0.589119        -0.070775        -0.414239
 H         0.121777        -1.168622         0.773700
 H         1.398849        -1.963116        -1.059765
 H         2.227909        -0.825077        -2.114697
 H         4.503584        -2.601406        -0.482837
 H         4.710083        -0.025641         1.027051
 H         1.670188         2.221413         0.223729
 H         1.955169         1.845045        -1.370535
 H         2.280419        -0.541243         2.081621
