19
Iteration:  1838
 C         0.075954        -0.123900         0.255873
 C         1.540420         0.082491         0.054205
 C         2.128901        -1.051778        -1.006574
 C         3.202180        -1.275947         0.002521
 O         3.771120        -2.595132         0.075591
 C         3.811103         0.050382         0.407108
 O         3.475371         1.074122        -0.534556
 C         2.117589         1.399138        -0.287244
 C         2.559368        -0.410332         1.178408
 H        -0.373391         0.431023         1.185507
 H        -0.406286         0.203690        -0.625361
 H        -0.052498        -1.199377         0.216369
 H         1.430826        -2.029165        -1.044052
 H         2.334086        -0.814149        -2.041512
 H         4.356932        -2.575648         0.845403
 H         4.843164         0.091417         0.839134
 H         1.945014         2.015963         0.616778
 H         1.554892         2.009382        -1.135310
 H         2.329706        -0.645156         2.183764
