19
Iteration:  1745
 C         0.019366         0.260120         0.388548
 C         1.442257        -0.033948        -0.054361
 C         1.900388        -1.259174        -0.857558
 C         3.207622        -1.319443        -0.026896
 O         4.153674        -2.456699        -0.026488
 C         3.742927        -0.059319         0.468858
 O         3.551498         1.235368        -0.090869
 C         2.157944         1.221099        -0.681086
 C         2.399802        -0.559270         1.084566
 H         0.082636         1.132199         0.970040
 H        -0.765785         0.440923        -0.493947
 H        -0.448242        -0.635489         0.957813
 H         1.432400        -2.125439        -0.609384
 H         1.908537        -1.144919        -1.976465
 H         4.497132        -2.535006        -0.957397
 H         4.717650        -0.057178         1.137276
 H         1.795050         2.336771        -0.497129
 H         2.150019         1.084870        -1.700944
 H         2.047295        -0.761017         2.151415
