19
Iteration:  4122
 C         0.073583         0.208442         0.427705
 C         1.508819        -0.029094         0.128457
 C         1.977816        -1.157363        -0.923465
 C         3.202432        -1.348067         0.024328
 O         4.005199        -2.497788        -0.081484
 C         3.733981        -0.016798         0.418299
 O         3.491275         1.184891        -0.364702
 C         2.082863         1.203665        -0.634200
 C         2.514714        -0.537325         1.207848
 H        -0.018328         0.914959         1.196045
 H        -0.497992         0.364951        -0.549129
 H        -0.523561        -0.637721         0.792754
 H         1.388201        -2.176469        -0.992398
 H         2.064603        -0.754139        -1.894593
 H         4.903738        -2.412708         0.417241
 H         4.726739        -0.080904         0.892810
 H         1.750698         2.160969        -0.075279
 H         1.816172         1.539947        -1.723010
 H         2.451140        -0.604324         2.241083
