19
Iteration:  2480
 C         0.126777        -0.079218         0.447725
 C         1.498670         0.050642        -0.064101
 C         2.108989        -1.096786        -1.112564
 C         3.159430        -1.346628        -0.031103
 O         3.893387        -2.538479         0.141549
 C         3.785706        -0.047222         0.357765
 O         3.546700         1.199418        -0.399460
 C         2.064348         1.449047        -0.361077
 C         2.485318        -0.479448         1.071233
 H        -0.096571         0.682245         1.188802
 H        -0.596886         0.060371        -0.502166
 H         0.019864        -1.061151         0.891001
 H         1.429844        -2.014841        -1.194425
 H         2.301440        -0.727955        -2.176886
 H         3.777315        -2.881057         1.088207
 H         4.807120         0.008251         0.923373
 H         1.719550         2.146426         0.473198
 H         1.762187         1.704839        -1.406882
 H         2.223513        -0.699727         2.097231
