19
Iteration:  4794
 C        -0.010236        -0.032564         0.320595
 C         1.505488        -0.024910         0.014995
 C         1.973062        -1.103546        -0.943327
 C         3.193729        -1.293348        -0.012515
 O         3.952614        -2.481022        -0.010930
 C         3.781664         0.026562         0.417046
 O         3.638430         1.136079        -0.380250
 C         2.108470         1.346393        -0.362437
 C         2.527962        -0.486500         1.044713
 H        -0.361563         0.787914         1.024606
 H        -0.550860         0.026847        -0.596505
 H        -0.337349        -0.863182         0.772082
 H         1.342205        -1.967576        -0.790412
 H         2.140728        -0.757118        -2.015479
 H         3.816263        -3.081440         0.771676
 H         4.579012         0.094146         1.128724
 H         1.799786         2.036480         0.394021
 H         1.882969         1.871173        -1.378811
 H         2.416705        -0.618396         2.147039
