19
Iteration:  4039charge 0 multiplicity 1
 C         0.032624        -0.041089         0.322851
 C         1.555146        -0.000191         0.132131
 C         2.044286        -1.018797        -0.942995
 C         3.205254        -1.377965        -0.062420
 O         3.848155        -2.580793         0.242202
 C         3.818755         0.035131         0.298640
 O         3.446200         1.165821        -0.520585
 C         2.047772         1.387194        -0.346854
 C         2.657952        -0.496296         1.086465
 H        -0.176843         0.857733         0.977950
 H        -0.555370         0.264944        -0.525434
 H        -0.255313        -1.062129         0.776982
 H         1.299596        -1.808749        -1.170469
 H         2.291043        -0.533249        -1.937221
 H         4.497162        -2.878625        -0.370613
 H         4.818649        -0.003914         0.593969
 H         2.008527         2.189808         0.362421
 H         1.656444         1.688107        -1.272070
 H         2.497288        -0.739612         2.126709
