19
Iteration:  1382charge 0 multiplicity 1
 C         0.036785         0.344753         0.270856
 C         1.457727        -0.015722         0.000802
 C         2.000553        -1.276654        -0.846112
 C         3.291057        -1.354556        -0.048505
 O         4.091710        -2.500040        -0.152281
 C         3.655448        -0.032085         0.604509
 O         3.496820         1.164495        -0.236852
 C         2.138339         1.257941        -0.494855
 C         2.412621        -0.581742         1.142362
 H        -0.099760         1.141828         1.034102
 H        -0.459293         0.746536        -0.652522
 H        -0.532580        -0.415453         0.731214
 H         1.352089        -2.134481        -0.605247
 H         2.056619        -1.186979        -1.962516
 H         5.022118        -2.319613        -0.463016
 H         4.671438        -0.025093         1.100963
 H         1.740725         2.136523        -0.058722
 H         1.903783         1.341446        -1.662392
 H         2.156606        -0.830797         2.175331
