19
Iteration:  1075charge 0 multiplicity 1
 C         0.127184        -0.157206         0.274556
 C         1.568490         0.121445        -0.049481
 C         2.015172        -0.995021        -1.081133
 C         3.154959        -1.392281        -0.084689
 O         3.857059        -2.579165         0.278579
 C         3.800491        -0.041773         0.440913
 O         3.555778         1.185383        -0.400024
 C         2.165969         1.540801        -0.246740
 C         2.441499        -0.527782         1.007724
 H        -0.078841         0.518116         1.227126
 H        -0.571175        -0.120729        -0.662998
 H        -0.005392        -1.166743         0.614194
 H         1.232278        -1.759618        -1.160075
 H         2.399939        -0.798053        -2.207028
 H         3.876872        -3.155175        -0.450167
 H         4.806210        -0.122572         0.866592
 H         1.792508         2.122554         0.635192
 H         1.841408         2.079957        -1.084893
 H         1.955593        -0.677049         1.994140
