19
Iteration:  1040
 C        -0.011543        -0.032268         0.315366
 C         1.521078        -0.042851        -0.046975
 C         2.025714        -1.115670        -1.070345
 C         3.195620        -1.282700        -0.100109
 O         3.763016        -2.521323         0.156971
 C         3.854833        -0.041944         0.452626
 O         3.626118         1.268098        -0.217181
 C         2.134990         1.359027        -0.383255
 C         2.536832        -0.509625         1.045125
 H        -0.276585         0.817819         1.099127
 H        -0.627905         0.272025        -0.472564
 H        -0.335695        -1.018544         0.764924
 H         1.380095        -2.105912        -1.060917
 H         2.423480        -0.908081        -2.061137
 H         4.379026        -2.743997        -0.517101
 H         4.867803        -0.173904         0.817632
 H         1.840917         2.174937         0.306372
 H         1.982386         1.633527        -1.473515
 H         2.185640        -0.705721         1.977771
