19
Iteration:   715
 C         0.159364         0.043202         0.208089
 C         1.639264         0.010618         0.046985
 C         2.185657        -1.028828        -1.001605
 C         3.153888        -1.407590         0.071579
 O         3.790029        -2.684567         0.038914
 C         3.771456         0.034995         0.451173
 O         3.398660         1.188434        -0.432123
 C         2.015813         1.433013        -0.360097
 C         2.582443        -0.563712         1.113168
 H        -0.021514         0.672909         1.053573
 H        -0.396180         0.519301        -0.615436
 H        -0.499080        -0.754719         0.672450
 H         1.313339        -1.686255        -1.126023
 H         2.627454        -0.660276        -1.933695
 H         4.429992        -2.674742         0.822440
 H         4.784030         0.030432         0.901912
 H         1.653508         2.118424         0.337840
 H         1.720687         1.766355        -1.465240
 H         2.405313        -0.470494         2.242891
