19
Iteration:  4592
 C         0.073367        -0.070168         0.353222
 C         1.497250         0.001835         0.098549
 C         2.051972        -0.988435        -1.019327
 C         3.236577        -1.318888        -0.052492
 O         3.899086        -2.591291         0.152495
 C         3.790433        -0.003223         0.324381
 O         3.501544         1.193790        -0.444422
 C         2.066187         1.335362        -0.370545
 C         2.633592        -0.459407         1.068931
 H        -0.259385         0.538218         1.188123
 H        -0.629835         0.344391        -0.441552
 H        -0.207630        -1.186832         0.635335
 H         1.327603        -1.898395        -1.113503
 H         2.377872        -0.547693        -1.971936
 H         3.173281        -3.218640         0.539537
 H         4.709210         0.114329         0.830831
 H         1.805642         2.122250         0.409977
 H         1.653138         1.844571        -1.433808
 H         2.592237        -0.523476         2.148284
