19
Iteration:  4682charge 0 multiplicity 1
 C         0.063125         0.108123         0.365841
 C         1.525358         0.020975         0.065435
 C         2.011770        -1.123931        -0.950035
 C         3.135738        -1.423788         0.001026
 O         3.994219        -2.516651         0.040202
 C         3.747503         0.006057         0.423922
 O         3.499306         1.212712        -0.262042
 C         2.075719         1.293462        -0.505677
 C         2.558396        -0.528902         1.104533
 H         0.017224         0.981581         1.017149
 H        -0.494538         0.267426        -0.609293
 H        -0.305131        -0.861456         0.857548
 H         1.283181        -2.019839        -1.088230
 H         2.453192        -0.856921        -1.905399
 H         4.439914        -2.489819        -0.869982
 H         4.772209        -0.187112         0.829813
 H         1.574521         2.264260        -0.213342
 H         1.819750         1.276947        -1.726350
 H         2.269027        -0.542707         2.167501
