19
Iteration:  4874
 C         0.010867         0.046820         0.381838
 C         1.530799         0.003956        -0.030485
 C         2.020206        -1.165597        -0.882710
 C         3.173415        -1.325587         0.068702
 O         4.012238        -2.407258        -0.057673
 C         3.792640        -0.015880         0.507635
 O         3.522552         1.104460        -0.386997
 C         2.163557         1.348257        -0.504589
 C         2.439248        -0.477269         1.120025
 H        -0.005672         0.631717         1.323907
 H        -0.649796         0.592097        -0.361852
 H        -0.251111        -1.063236         0.439318
 H         1.273482        -2.029853        -0.966187
 H         2.414030        -0.950196        -1.957914
 H         3.370756        -3.134747        -0.242739
 H         4.684362         0.015824         1.166378
 H         1.819509         2.222394         0.139318
 H         1.931245         1.504693        -1.588154
 H         2.431164        -0.721665         2.193005
