19
Iteration:  2559
 C        -0.008112         0.167294         0.254994
 C         1.500455         0.011746         0.096593
 C         1.888904        -1.301299        -0.760127
 C         3.185323        -1.378065         0.022926
 O         4.135968        -2.407914        -0.103241
 C         3.725698        -0.034115         0.495849
 O         3.565481         1.151667        -0.341236
 C         2.167876         1.256157        -0.496510
 C         2.478149        -0.462899         1.139524
 H        -0.209512         0.961696         1.127785
 H        -0.417377         0.595799        -0.685934
 H        -0.598515        -0.707121         0.361382
 H         1.006823        -2.006019        -0.426731
 H         1.891728        -1.205011        -1.859222
 H         4.534003        -2.323148        -1.047342
 H         4.666919        -0.133642         0.909343
 H         1.788565         2.258009        -0.033097
 H         1.691158         1.402087        -1.483336
 H         2.311848        -0.657041         2.172951
