19
Iteration:  4691charge 0 multiplicity 1
 C         0.127554         0.042344         0.374904
 C         1.547587        -0.011188         0.043345
 C         1.939720        -1.135034        -0.967315
 C         3.139280        -1.302528        -0.061577
 O         4.014834        -2.555982         0.101039
 C         3.742723         0.007934         0.394036
 O         3.542312         1.226731        -0.241923
 C         2.071841         1.300420        -0.539867
 C         2.525500        -0.489560         1.112527
 H        -0.187324         0.823484         0.982498
 H        -0.428924         0.398776        -0.538760
 H        -0.375827        -0.905016         0.859640
 H         1.075197        -1.954564        -1.098472
 H         2.217714        -0.735188        -1.952411
 H         4.183228        -2.830425        -0.860507
 H         4.661262         0.036826         0.955405
 H         1.726935         2.132166         0.136500
 H         1.896143         1.360127        -1.702384
 H         2.329956        -0.811714         2.168280
