19
Iteration:  1529charge 0 multiplicity 1
 C        -0.031139         0.052072         0.337121
 C         1.488952        -0.024373        -0.034196
 C         1.954261        -1.221484        -0.946935
 C         3.148055        -1.312879        -0.010544
 O         4.022779        -2.402053         0.031624
 C         3.731476        -0.034357         0.454982
 O         3.648422         1.162893        -0.265229
 C         2.199567         1.347600        -0.486424
 C         2.458777        -0.507129         1.114915
 H        -0.181114         0.829163         1.134649
 H        -0.683588         0.387298        -0.472641
 H        -0.525664        -0.964477         0.708289
 H         1.270116        -2.113086        -0.847678
 H         2.116185        -1.002484        -1.996652
 H         4.000004        -2.879150        -0.843307
 H         4.626267        -0.127262         1.086966
 H         1.921603         2.053445         0.235783
 H         2.148047         1.660931        -1.564598
 H         2.315024        -0.414169         2.112495
