19
Iteration:  2107charge 0 multiplicity 1
 C        -0.021753        -0.033064         0.332758
 C         1.480587        -0.009647         0.009220
 C         1.998753        -0.992216        -1.005733
 C         3.191518        -1.326877        -0.010431
 O         3.907579        -2.534882         0.174384
 C         3.802753        -0.020923         0.346494
 O         3.557692         1.207825        -0.354449
 C         2.113006         1.299559        -0.411666
 C         2.542243        -0.524003         1.099056
 H        -0.126435         0.683971         1.084314
 H        -0.552172         0.352279        -0.593642
 H        -0.424701        -1.033073         0.753375
 H         1.531616        -1.921629        -1.099090
 H         2.341090        -0.615023        -2.022726
 H         4.687897        -2.528053        -0.473758
 H         4.833865        -0.062063         0.917400
 H         1.926302         2.062578         0.271184
 H         1.744502         1.480680        -1.490692
 H         2.441005        -0.706944         2.181904
