19
Iteration:  4647charge 0 multiplicity 1
 C         0.014294         0.110887         0.335562
 C         1.466924        -0.047772         0.062152
 C         1.972466        -1.172147        -0.888304
 C         3.274744        -1.309029        -0.053050
 O         3.975740        -2.484252        -0.079180
 C         3.736918         0.033025         0.547336
 O         3.594059         1.114078        -0.417853
 C         2.079945         1.288321        -0.366126
 C         2.490882        -0.472494         1.021900
 H        -0.190580         0.929548         0.985029
 H        -0.607931         0.296959        -0.595499
 H        -0.449953        -0.789162         0.947314
 H         1.326799        -2.164795        -0.686522
 H         1.977646        -0.997151        -1.973102
 H         4.821617        -2.509086         0.419524
 H         4.659383         0.045063         1.064812
 H         1.956409         2.195837         0.316566
 H         1.935175         1.483190        -1.572575
 H         2.160476        -0.545609         2.081977
