19
Iteration:    12charge 0 multiplicity 1
 C         0.034586         0.118792         0.328548
 C         1.539626        -0.018153        -0.025929
 C         2.065376        -1.100193        -0.943372
 C         3.261082        -1.290450        -0.016349
 O         3.853159        -2.621829         0.084684
 C         3.806184         0.086851         0.458108
 O         3.597312         1.213560        -0.316401
 C         2.067496         1.296443        -0.467219
 C         2.453006        -0.599305         1.046147
 H        -0.174567         0.900734         1.054967
 H        -0.610349         0.269249        -0.538456
 H        -0.285890        -0.846867         0.799575
 H         1.401907        -1.986507        -0.778929
 H         2.166783        -0.826122        -1.989455
 H         4.644371        -2.636169        -0.395157
 H         4.451557         0.251679         1.312768
 H         1.672269         2.057074         0.196368
 H         1.929318         1.574250        -1.521144
 H         2.009611        -0.960861         1.966506
