19
Iteration:    72charge 0 multiplicity 1
 C         0.014843         0.094887         0.324821
 C         1.518480         0.041511         0.018514
 C         1.820164        -1.208820        -0.931167
 C         3.159001        -1.391779        -0.141385
 O         4.029394        -2.474739         0.074364
 C         3.679531         0.011002         0.485929
 O         3.627094         1.183065        -0.193014
 C         2.242203         1.351990        -0.568154
 C         2.504539        -0.594137         1.114366
 H        -0.293423         0.923873         1.046794
 H        -0.624905         0.339530        -0.584553
 H        -0.352380        -0.937415         0.577096
 H         0.993046        -2.008403        -0.754781
 H         1.857311        -1.092527        -2.061148
 H         4.853952        -2.097856        -0.199293
 H         4.630990        -0.011133         0.986133
 H         1.870805         2.368551        -0.184298
 H         2.231844         1.468989        -1.734051
 H         2.206518        -0.751811         2.138048
