19
Iteration:   221
 C        -0.012487         0.212741         0.321085
 C         1.465966        -0.052987        -0.004320
 C         2.085012        -1.032251        -1.001398
 C         3.237270        -1.305805         0.028441
 O         3.863637        -2.514157         0.080366
 C         3.787351        -0.019172         0.466337
 O         3.517926         1.155097        -0.324800
 C         2.118309         1.245694        -0.469410
 C         2.535017        -0.632543         1.136599
 H        -0.214964         0.905085         1.090518
 H        -0.447936         0.580862        -0.560434
 H        -0.588044        -0.830346         0.557529
 H         1.804378        -2.119970        -1.124198
 H         2.323607        -0.599841        -1.970543
 H         4.588162        -2.601184        -0.641213
 H         4.688046         0.009508         1.007049
 H         1.825221         2.166457         0.078291
 H         1.917062         1.288398        -1.466808
 H         2.533367        -0.850514         2.178092
