19
Iteration:  1220charge 0 multiplicity 1
 C        -0.016654         0.058333         0.292871
 C         1.476954        -0.022374        -0.021472
 C         2.125415        -1.147591        -0.972009
 C         3.199749        -1.344804         0.040727
 O         3.851214        -2.638501         0.006296
 C         3.813877         0.041335         0.467073
 O         3.551425         1.229776        -0.304374
 C         2.100699         1.344913        -0.408238
 C         2.506132        -0.487382         1.153212
 H        -0.189699         0.802096         1.069782
 H        -0.351660         0.469857        -0.775596
 H        -0.469412        -0.904213         0.664713
 H         1.624314        -2.064849        -1.069758
 H         2.422896        -0.838561        -2.098150
 H         4.451941        -2.603118        -0.813955
 H         4.737923         0.028197         1.021138
 H         1.693530         2.210262         0.294875
 H         1.962942         1.775116        -1.358246
 H         2.333934        -0.456745         2.173314
