19
Iteration:  3917
 C         0.040689         0.261379         0.367776
 C         1.551425        -0.084894         0.012448
 C         1.999585        -1.275812        -0.905103
 C         3.242797        -1.359491        -0.003257
 O         4.066430        -2.533946        -0.079482
 C         3.716409         0.005958         0.394145
 O         3.504901         1.216431        -0.328004
 C         2.010272         1.305964        -0.473403
 C         2.504081        -0.492987         1.104341
 H         0.146894         1.063669         1.086725
 H        -0.620253         0.682935        -0.473440
 H        -0.590209        -0.724734         0.743715
 H         1.535096        -2.263451        -0.735342
 H         1.960197        -1.360151        -1.993886
 H         4.116467        -2.802511         0.887306
 H         4.745408         0.093430         0.907437
 H         1.740692         2.143660         0.292063
 H         1.748105         1.714893        -1.404803
 H         2.435736        -0.596668         2.192992
