19
Iteration:  2549
 C         0.062350         0.175294         0.211338
 C         1.482459        -0.039755         0.043059
 C         1.796833        -1.225157        -0.757605
 C         3.217265        -1.350852         0.024159
 O         4.131458        -2.417440        -0.098168
 C         3.723849        -0.079446         0.488410
 O         3.568008         1.210420        -0.311729
 C         2.133442         1.272788        -0.563762
 C         2.503981        -0.507149         1.208999
 H        -0.157790         0.823251         1.229287
 H        -0.491398         0.576175        -0.577196
 H        -0.243420        -0.809396         0.515875
 H         1.275044        -2.265175        -0.389432
 H         1.810185        -1.255439        -1.854213
 H         4.129512        -2.383968        -1.113121
 H         4.554920        -0.170219         1.083451
 H         1.785942         2.140514         0.092278
 H         1.905880         1.293363        -1.611287
 H         2.344110        -0.388842         2.286784
