19
Iteration:  2219charge 0 multiplicity 1
 C         0.087928        -0.105593         0.334115
 C         1.528217        -0.016818        -0.128289
 C         2.084123        -1.137748        -1.029874
 C         3.242864        -1.299831        -0.027633
 O         3.716066        -2.627049         0.101274
 C         3.792291         0.054411         0.439913
 O         3.539490         1.289378        -0.280347
 C         2.087755         1.383725        -0.372884
 C         2.590522        -0.459653         1.086260
 H        -0.149801         0.660959         1.177159
 H        -0.611224         0.100423        -0.421652
 H        -0.157638        -1.101770         0.760695
 H         1.440212        -2.044389        -1.097011
 H         2.386332        -0.843934        -2.000934
 H         4.660726        -2.678209        -0.199754
 H         4.662704         0.135659         0.957822
 H         1.677446         2.181285         0.307931
 H         1.802190         1.653104        -1.430984
 H         2.367537        -0.487735         2.151462
