19
Iteration:   763charge 0 multiplicity 1
 C        -0.046514        -0.064871         0.362973
 C         1.474213         0.072029        -0.021692
 C         1.903403        -1.131511        -0.971346
 C         3.174460        -1.294499        -0.045802
 O         3.944013        -2.499890         0.012230
 C         3.776980        -0.058026         0.468522
 O         3.705333         1.170458        -0.239732
 C         2.217046         1.423886        -0.544545
 C         2.474408        -0.479994         1.069138
 H        -0.620979         0.536565         1.118160
 H        -0.681359        -0.062809        -0.550168
 H        -0.067675        -1.039700         0.766387
 H         1.152653        -1.879587        -0.812520
 H         2.018093        -0.962148        -2.044912
 H         4.369707        -2.509235         0.890548
 H         4.685984        -0.291692         1.022859
 H         1.931201         2.359038         0.052164
 H         2.155451         1.599816        -1.638572
 H         2.124181        -0.883806         1.983169
