19
Iteration:  4077
 C        -0.001480         0.016896         0.457260
 C         1.450187        -0.058020        -0.019271
 C         1.947138        -1.223463        -0.824519
 C         3.216410        -1.322971        -0.052657
 O         3.921010        -2.522823         0.004674
 C         3.722345         0.020727         0.412828
 O         3.645224         1.183595        -0.425702
 C         2.187578         1.351408        -0.468886
 C         2.512515        -0.402882         1.088157
 H        -0.132646         0.722678         1.322243
 H        -0.624136         0.237814        -0.457701
 H        -0.478368        -0.871538         0.752461
 H         1.306086        -2.126875        -0.750379
 H         2.142603        -1.099503        -1.902503
 H         4.908411        -2.285557         0.001387
 H         4.821056         0.020723         0.708548
 H         1.734567         2.090636         0.289541
 H         1.852360         1.815813        -1.487763
 H         2.133318        -0.465580         2.098347
