19
Iteration:  3848
 C         0.029275        -0.176148         0.419502
 C         1.539494         0.008297        -0.003570
 C         2.135999        -1.042568        -0.989059
 C         3.224574        -1.339035         0.027884
 O         3.744094        -2.608821         0.084180
 C         3.828980         0.034790         0.322632
 O         3.545042         1.204852        -0.510067
 C         2.056265         1.454219        -0.404350
 C         2.637404        -0.415168         1.151442
 H        -0.296459         0.525815         1.162081
 H        -0.740878        -0.113791        -0.451286
 H        -0.074986        -1.227169         0.765686
 H         1.365401        -1.812717        -1.300060
 H         2.429309        -0.695878        -1.875433
 H         3.600126        -3.075084         0.982175
 H         4.750816         0.100666         0.814501
 H         1.832133         2.091810         0.471128
 H         1.769218         2.012481        -1.344638
 H         2.454484        -0.440208         2.242577
