19
Iteration:  2507
 C         0.036575         0.070710         0.425515
 C         1.485032        -0.029465        -0.029680
 C         2.045897        -1.115279        -0.973344
 C         3.245691        -1.338486        -0.073649
 O         3.950581        -2.502575         0.085471
 C         3.787721         0.062536         0.415000
 O         3.540050         1.254727        -0.244750
 C         2.094112         1.264111        -0.556617
 C         2.536049        -0.580245         1.067322
 H        -0.071171         1.054838         1.156737
 H        -0.571776         0.203652        -0.387679
 H        -0.292133        -0.854079         0.983087
 H         1.280947        -2.057183        -0.990183
 H         2.074386        -0.760268        -2.000420
 H         3.361125        -3.327697        -0.018776
 H         4.689988         0.122812         0.932758
 H         1.579336         2.109199        -0.026391
 H         1.998647         1.351172        -1.641030
 H         2.473860        -0.684617         2.204916
