19
Iteration:  3214
 C         0.078315        -0.149128         0.460569
 C         1.520929         0.031763         0.013212
 C         2.050806        -1.031160        -1.033853
 C         3.164246        -1.273682        -0.044787
 O         3.869588        -2.536230         0.162986
 C         3.791290         0.053779         0.386385
 O         3.530853         1.174345        -0.468824
 C         2.127112         1.345574        -0.445956
 C         2.553528        -0.476382         1.067336
 H        -0.279385         0.517789         1.199300
 H        -0.657140        -0.042851        -0.463632
 H        -0.112454        -1.095609         0.953772
 H         1.488640        -1.920935        -1.086587
 H         2.320440        -0.506005        -2.056892
 H         3.484420        -3.014243         0.910891
 H         4.807290         0.018607         0.615141
 H         1.892658         2.118365         0.352400
 H         1.783572         1.664461        -1.510738
 H         2.569611        -0.760174         2.096180
