19
Iteration:  3458charge 0 multiplicity 1
 C         0.088780        -0.066113         0.326418
 C         1.497411        -0.009421         0.077318
 C         2.078138        -0.919794        -1.005641
 C         3.202738        -1.312596        -0.006300
 O         3.900421        -2.520442         0.206111
 C         3.835589        -0.009593         0.407490
 O         3.416695         1.080506        -0.621052
 C         2.098048         1.391246        -0.350785
 C         2.596628        -0.548788         1.108267
 H        -0.368902         0.451053         1.311428
 H        -0.462273         0.380825        -0.432579
 H        -0.270180        -1.168285         0.314489
 H         1.577389        -1.819535        -1.308986
 H         2.485071        -0.256696        -1.815514
 H         3.363439        -3.215213         0.691184
 H         4.767451         0.011655         0.826310
 H         2.002382         2.168677         0.435863
 H         1.633690         1.926153        -1.306730
 H         2.568286        -0.548392         2.192822
