19
Iteration:   321
 C         0.014300        -0.053856         0.414669
 C         1.530157         0.038801        -0.001463
 C         2.265669        -1.012981        -1.102969
 C         3.282827        -1.325189        -0.002190
 O         3.660049        -2.700214         0.119572
 C         3.818138         0.062571         0.518504
 O         3.490805         1.198302        -0.378945
 C         2.095074         1.412855        -0.446668
 C         2.506694        -0.504940         1.043397
 H        -0.205610         0.652922         1.121143
 H        -0.695017         0.031872        -0.371860
 H        -0.224024        -0.991327         1.084765
 H         1.776434        -2.047059        -1.286288
 H         2.620122        -0.639471        -2.042560
 H         4.420194        -2.709847        -0.458394
 H         4.783136         0.164799         1.084242
 H         1.832923         2.345952         0.170885
 H         1.932429         1.700726        -1.412282
 H         2.318285        -0.694666         2.139866
