19
Iteration:  3885charge 0 multiplicity 1
 C        -0.003400         0.016062         0.378653
 C         1.524188        -0.004288         0.049602
 C         1.939263        -1.091722        -0.935123
 C         3.192808        -1.313050        -0.023614
 O         3.992858        -2.475073         0.002423
 C         3.737336        -0.020896         0.404118
 O         3.597111         1.110409        -0.448717
 C         2.124641         1.364459        -0.496088
 C         2.518481        -0.490545         1.153225
 H        -0.169797         0.488910         1.349381
 H        -0.545889         0.277355        -0.518460
 H        -0.353388        -1.025828         0.845422
 H         1.314854        -1.960393        -0.813552
 H         2.200977        -0.730465        -2.039145
 H         4.134401        -2.745865         0.950055
 H         4.761028        -0.029125         0.919678
 H         1.784777         2.250797         0.282035
 H         1.814268         1.643323        -1.482164
 H         2.361658        -0.659674         2.222421
