19
Iteration:  3831
 C         0.115990        -0.154806         0.406501
 C         1.523613         0.001260        -0.002053
 C         2.123631        -1.091949        -1.018111
 C         3.185801        -1.333976        -0.007316
 O         3.748260        -2.696610         0.148876
 C         3.850915         0.083031         0.337821
 O         3.487304         1.293751        -0.513213
 C         2.102243         1.423526        -0.281507
 C         2.585792        -0.382931         0.972262
 H        -0.216143         0.757682         1.083406
 H        -0.596753        -0.059581        -0.374847
 H        -0.005073        -1.190657         0.833078
 H         1.542498        -1.998427        -1.009056
 H         2.664133        -0.633520        -2.016893
 H         3.364004        -3.148549         0.985959
 H         4.863356         0.091097         0.810266
 H         1.852260         1.974787         0.683968
 H         1.574011         1.706004        -1.171846
 H         2.468357        -0.386080         2.058503
