19
Iteration:  3253
 C         0.106723        -0.327733         0.418099
 C         1.517143         0.065307        -0.021912
 C         2.066580        -1.031377        -1.017416
 C         3.164438        -1.327374         0.004846
 O         3.726140        -2.680340         0.192669
 C         3.843431         0.073269         0.257924
 O         3.526382         1.283456        -0.506915
 C         2.151281         1.451877        -0.393715
 C         2.628103        -0.348362         1.102467
 H        -0.260687         0.335095         1.318669
 H        -0.601266        -0.291221        -0.370195
 H         0.278869        -1.388188         0.667667
 H         1.463804        -1.958054        -1.275043
 H         2.450510        -0.702000        -1.924128
 H         3.232664        -2.885599         1.045422
 H         4.830835         0.118462         0.772860
 H         1.820268         1.987307         0.545995
 H         1.833288         2.060684        -1.219490
 H         2.315745        -0.395020         2.208514
