19
Iteration:  1202charge 0 multiplicity 1
 C         0.047311         0.195208         0.329769
 C         1.525928        -0.013096        -0.004569
 C         2.103001        -1.110056        -0.957694
 C         3.279048        -1.359857        -0.001484
 O         3.914086        -2.604820        -0.045304
 C         3.676268         0.057324         0.599445
 O         3.514085         1.148514        -0.274133
 C         2.096044         1.292276        -0.514618
 C         2.477178        -0.547104         1.076373
 H        -0.050571         1.021194         1.004316
 H        -0.592939         0.455331        -0.444389
 H        -0.289998        -0.706769         0.950576
 H         1.314814        -1.955276        -1.052638
 H         2.288643        -0.818875        -1.956787
 H         4.776432        -2.376232        -0.532194
 H         4.566168         0.160681         1.254633
 H         1.757115         2.105496         0.029629
 H         1.854682         1.258427        -1.625297
 H         2.203686        -0.831785         2.116519
