19
Iteration:  2486
 C         0.137842        -0.037747         0.432281
 C         1.560760         0.020292        -0.031973
 C         2.049764        -1.113183        -1.125982
 C         3.147100        -1.333040        -0.061884
 O         3.931765        -2.558445         0.138232
 C         3.798823        -0.016584         0.408155
 O         3.509504         1.218381        -0.372821
 C         2.060175         1.415387        -0.391737
 C         2.494340        -0.470820         1.058990
 H        -0.052386         0.795200         1.184970
 H        -0.573584         0.033143        -0.331206
 H        -0.072533        -1.008107         0.971595
 H         1.457401        -2.011280        -1.226169
 H         2.351684        -0.736951        -2.085873
 H         3.586298        -3.025560         0.943479
 H         4.698209        -0.057237         0.932633
 H         1.629330         2.210457         0.212903
 H         1.879059         1.673186        -1.454220
 H         2.192046        -0.805358         2.101798
