19
Iteration:  4337charge 0 multiplicity 1
 C         0.059143         0.056368         0.431149
 C         1.474991         0.040478         0.014188
 C         2.001750        -1.156123        -0.897163
 C         3.199804        -1.341398         0.004359
 O         3.991866        -2.510745        -0.036205
 C         3.749907        -0.034740         0.416048
 O         3.524196         1.069591        -0.461550
 C         2.117242         1.374862        -0.414176
 C         2.455481        -0.433414         1.115522
 H        -0.156073         0.960471         1.096190
 H        -0.584802         0.098403        -0.384267
 H        -0.091405        -0.857058         0.832362
 H         1.301685        -1.908787        -0.864174
 H         2.315423        -1.020422        -1.974861
 H         4.853239        -2.195659         0.334532
 H         4.651766        -0.099527         0.976518
 H         1.839853         2.241354         0.238358
 H         1.819484         1.586794        -1.566011
 H         2.228973        -0.630687         2.185726
