19
Iteration:  1297charge 0 multiplicity 1
 C         0.084308        -0.050447         0.409652
 C         1.545262        -0.051870        -0.076018
 C         2.221409        -1.035222        -1.138157
 C         3.183228        -1.348019        -0.002766
 O         3.751170        -2.620928         0.122160
 C         3.745096         0.015354         0.452675
 O         3.532173         1.160568        -0.383440
 C         2.051819         1.435694        -0.331417
 C         2.493792        -0.429311         1.084609
 H         0.009495         0.759120         1.098903
 H        -0.598627         0.228882        -0.515923
 H        -0.169268        -1.043518         0.902106
 H         1.617609        -1.872079        -1.371804
 H         2.608023        -0.549551        -2.132002
 H         4.609008        -2.730376        -0.228294
 H         4.686179         0.080246         1.053395
 H         1.968267         2.024135         0.672925
 H         1.735223         1.844424        -1.242465
 H         2.229500        -0.620742         2.117303
