19
Iteration:  3612charge 0 multiplicity 1
 C        -0.006881        -0.125317         0.304241
 C         1.521273         0.052421         0.041092
 C         2.052492        -1.034103        -0.916828
 C         3.153710        -1.315253         0.037015
 O         3.916570        -2.533793         0.161621
 C         3.760261         0.012574         0.245511
 O         3.544147         1.149614        -0.471558
 C         2.127113         1.359129        -0.327555
 C         2.604045        -0.417888         1.129535
 H        -0.450682         0.341438         1.264770
 H        -0.517983         0.325159        -0.483247
 H        -0.270403        -1.215878         0.233008
 H         1.434443        -1.874509        -1.014411
 H         2.225891        -0.787131        -1.971104
 H         3.403770        -3.301095         0.005033
 H         4.821697        -0.033016         0.649021
 H         1.981744         2.229964         0.282555
 H         1.773666         1.777219        -1.395147
 H         2.823071        -0.495861         2.192424
