19
Iteration:  3152
 C        -0.037820         0.192325         0.293261
 C         1.428920        -0.045612         0.100149
 C         1.845792        -1.281778        -0.809031
 C         3.210355        -1.307602         0.027879
 O         4.160619        -2.297415        -0.077702
 C         3.788856        -0.046414         0.482436
 O         3.561241         1.125485        -0.406887
 C         2.189463         1.228478        -0.527757
 C         2.480036        -0.503870         1.170719
 H        -0.230528         0.978011         1.185987
 H        -0.353998         0.631501        -0.589009
 H        -0.648979        -0.756921         0.328123
 H         1.410248        -2.313808        -0.456775
 H         1.714314        -1.099078        -1.834135
 H         3.834982        -3.067528        -0.576496
 H         4.760012        -0.069037         0.936790
 H         1.855630         2.040743         0.131223
 H         1.843779         1.484827        -1.456769
 H         2.545758        -0.703925         2.189401
