19
Iteration:  4484charge 0 multiplicity 1
 C        -0.006655         0.181014         0.324398
 C         1.439428        -0.038896         0.019497
 C         1.982468        -1.283939        -0.870034
 C         3.246366        -1.325919        -0.037853
 O         3.939910        -2.587628         0.008795
 C         3.806448         0.077629         0.358201
 O         3.521241         1.193683        -0.368793
 C         2.068431         1.298959        -0.368615
 C         2.619950        -0.427245         1.138931
 H        -0.207166         1.048051         0.920960
 H        -0.439144         0.505430        -0.692016
 H        -0.403427        -0.810133         0.858431
 H         1.346572        -2.273598        -0.621987
 H         2.164586        -1.302712        -1.932118
 H         4.699005        -2.532179        -0.652970
 H         4.763930         0.141177         0.886091
 H         1.653425         1.986241         0.405793
 H         1.773616         1.590095        -1.391747
 H         2.529163        -0.635733         2.163263
