19
Iteration:  1500charge 0 multiplicity 1
 C         0.109879        -0.065029         0.306106
 C         1.553939         0.065646        -0.013477
 C         2.129262        -0.937865        -1.024222
 C         3.251767        -1.321467         0.019255
 O         3.816677        -2.687358         0.185304
 C         3.778939         0.044490         0.392672
 O         3.475096         1.185106        -0.370212
 C         2.055268         1.362381        -0.429423
 C         2.542153        -0.521590         1.082539
 H        -0.269457         0.596835         1.178941
 H        -0.501010         0.178609        -0.535967
 H        -0.066467        -1.005353         0.758228
 H         1.405450        -1.826506        -1.163333
 H         2.416332        -0.497505        -1.971602
 H         3.542229        -3.167917        -0.564161
 H         4.767369         0.163087         0.978712
 H         1.807579         2.202763         0.416872
 H         1.854238         1.816737        -1.374590
 H         2.457871        -0.752297         2.194825
