19
Iteration:  3181
 C         0.044510         0.195252         0.407006
 C         1.473265        -0.016199         0.038729
 C         2.050346        -1.224718        -0.942389
 C         3.256186        -1.384955         0.008968
 O         4.140345        -2.465134         0.036318
 C         3.699788        -0.012405         0.425043
 O         3.439216         1.127698        -0.439281
 C         2.082468         1.322937        -0.438617
 C         2.463408        -0.467271         1.129395
 H        -0.043370         1.006877         1.092028
 H        -0.467458         0.581863        -0.602697
 H        -0.472225        -0.697729         0.725417
 H         1.529743        -2.155356        -0.925349
 H         2.150148        -0.972234        -2.101873
 H         3.591740        -3.293833        -0.165217
 H         4.700935        -0.055066         0.751210
 H         1.838143         2.120784         0.348030
 H         1.668789         1.717877        -1.449149
 H         2.534887        -0.611786         2.195327
