19
Iteration:  1909
 C         0.133500         0.040100         0.363800
 C         1.540681         0.003722        -0.043770
 C         1.967808        -1.211073        -0.906262
 C         3.231799        -1.331264        -0.050242
 O         3.869783        -2.537780        -0.011216
 C         3.730662         0.004074         0.457231
 O         3.553913         1.292622        -0.222760
 C         2.138220         1.320606        -0.539926
 C         2.453291        -0.482424         1.070720
 H        -0.047242         0.753625         1.029824
 H        -0.572836         0.052711        -0.527753
 H         0.056908        -0.995548         0.729618
 H         1.432367        -2.053372        -0.711737
 H         1.937269        -1.126080        -2.057035
 H         4.683221        -2.446612         0.540937
 H         4.637529        -0.150607         0.913520
 H         1.741268         2.152902         0.048310
 H         1.894734         1.634813        -1.567924
 H         2.240907        -0.824178         2.083349
