19
Iteration:   931charge 0 multiplicity 1
 C        -0.035376         0.062195         0.305900
 C         1.533266        -0.041222         0.038752
 C         2.121159        -1.016151        -1.030145
 C         3.201235        -1.382063        -0.017065
 O         3.775312        -2.654478         0.029689
 C         3.823705         0.017014         0.421948
 O         3.550912         1.211506        -0.301384
 C         2.076541         1.346948        -0.392003
 C         2.578967        -0.507304         1.108943
 H        -0.147586         1.086701         0.884684
 H        -0.666512         0.203579        -0.588859
 H        -0.420684        -0.952934         0.637236
 H         1.406935        -1.894528        -1.166581
 H         2.527601        -0.632414        -1.977889
 H         4.714426        -2.540845         0.335834
 H         4.816549        -0.183833         0.865865
 H         1.780428         2.171624         0.321680
 H         1.838078         1.603114        -1.370984
 H         2.468357        -0.339559         2.128626
