19
Iteration:  3233
 C         0.152993        -0.337471         0.425676
 C         1.547508         0.045827         0.007700
 C         2.026749        -1.034809        -1.024514
 C         3.222419        -1.324675        -0.049195
 O         3.695697        -2.496659         0.183712
 C         3.836127         0.038487         0.335129
 O         3.572927         1.169544        -0.469746
 C         2.072728         1.480631        -0.362043
 C         2.612523        -0.388123         1.009102
 H        -0.231583         0.264883         1.192556
 H        -0.538082        -0.287723        -0.478117
 H         0.216199        -1.319651         0.794352
 H         1.271005        -1.770822        -1.004548
 H         2.195328        -0.842823        -2.034703
 H         3.320266        -2.766884         1.087050
 H         4.772522        -0.018155         0.911471
 H         2.009348         2.279689         0.270290
 H         1.777170         1.696906        -1.457005
 H         2.395514        -0.558915         2.141646
