19
Iteration:  1552charge 0 multiplicity 1
 C         0.067959         0.240032         0.255443
 C         1.541941         0.011761         0.020325
 C         1.867652        -1.259542        -0.846341
 C         3.200697        -1.360447        -0.073634
 O         4.153819        -2.352120        -0.040572
 C         3.696818        -0.077056         0.551513
 O         3.549562         1.146139        -0.235747
 C         2.139275         1.280689        -0.516636
 C         2.419816        -0.552463         1.124536
 H        -0.103229         1.090363         1.068908
 H        -0.473070         0.591742        -0.595619
 H        -0.540515        -0.750011         0.579877
 H         1.075000        -2.051745        -0.495838
 H         1.784073        -1.224949        -1.908888
 H         4.313631        -2.799824        -0.836267
 H         4.758091        -0.124207         1.041727
 H         1.870651         2.177819        -0.026354
 H         2.000408         1.180845        -1.627845
 H         1.999216        -0.990146         2.003417
