19
Iteration:  2592charge 0 multiplicity 1
 C        -0.019586         0.116765         0.345862
 C         1.510884        -0.022339         0.033808
 C         2.035790        -1.149873        -0.920906
 C         3.217084        -1.355557        -0.014267
 O         3.970417        -2.498475         0.033089
 C         3.788584         0.018988         0.447788
 O         3.512782         1.150901        -0.452159
 C         2.074734         1.253172        -0.406875
 C         2.517375        -0.526277         1.082671
 H        -0.061068         1.029913         1.111048
 H        -0.539760         0.556538        -0.501244
 H        -0.569929        -0.670955         0.800151
 H         1.189275        -1.915804        -0.915342
 H         2.146216        -0.754565        -1.924359
 H         4.905734        -2.438805         0.240204
 H         4.716979         0.080520         0.896619
 H         1.840636         2.070810         0.386219
 H         1.693853         1.441900        -1.430617
 H         2.584877        -0.670602         2.176302
