19
Iteration:  1742
 C         0.026436         0.248484         0.375682
 C         1.442514        -0.016473        -0.065760
 C         1.897436        -1.232133        -0.850801
 C         3.218196        -1.327351        -0.020386
 O         4.147244        -2.449238        -0.021682
 C         3.744390        -0.062868         0.459993
 O         3.541609         1.226537        -0.098950
 C         2.151050         1.247092        -0.666833
 C         2.407263        -0.578341         1.093602
 H         0.051669         1.131235         1.067744
 H        -0.697286         0.368759        -0.516745
 H        -0.328366        -0.618051         0.844634
 H         1.369710        -2.132452        -0.516054
 H         1.873923        -1.189564        -1.961593
 H         4.485892        -2.618447        -0.957712
 H         4.662254        -0.103908         1.127669
 H         1.710663         2.241724        -0.420637
 H         2.238085         1.021550        -1.762943
 H         2.106836        -0.681147         2.088040
