19
Iteration:  2642charge 0 multiplicity 1
 C         0.128811        -0.329337         0.485966
 C         1.548218         0.028878        -0.000467
 C         2.057114        -1.038120        -1.056311
 C         3.136896        -1.293129        -0.012757
 O         3.686965        -2.613899         0.166413
 C         3.844702         0.092286         0.307990
 O         3.595134         1.235684        -0.473224
 C         2.113443         1.416343        -0.401142
 C         2.586696        -0.341633         1.041454
 H        -0.225828         0.201692         1.256873
 H        -0.614811        -0.190337        -0.398342
 H         0.149708        -1.405897         0.794093
 H         1.597567        -1.953671        -1.159041
 H         2.246513        -0.501185        -2.048678
 H         3.617287        -2.907367         1.069066
 H         4.824529         0.144560         0.852996
 H         2.084742         2.051010         0.393975
 H         1.626753         1.813840        -1.328356
 H         2.324710        -0.425422         2.047594
