19
Iteration:   236charge 0 multiplicity 1
 C         0.021321         0.225605         0.218576
 C         1.490500        -0.035116         0.068909
 C         2.024871        -1.183043        -0.929380
 C         3.264226        -1.299067        -0.078764
 O         3.944667        -2.471882         0.063722
 C         3.751862         0.010530         0.522577
 O         3.531731         1.069379        -0.346740
 C         2.105758         1.294263        -0.387945
 C         2.514393        -0.577119         1.098950
 H         0.014565         0.938925         1.072836
 H        -0.422095         0.836740        -0.622036
 H        -0.581918        -0.649524         0.348120
 H         1.227996        -1.964385        -0.885286
 H         2.143008        -0.961125        -1.985249
 H         4.596444        -2.438387        -0.672609
 H         4.722721        -0.003193         1.081182
 H         1.707695         1.969375         0.332635
 H         1.763037         1.643759        -1.454310
 H         2.270529        -0.976931         2.121368
