19
Iteration:  2540charge 0 multiplicity 1
 C         0.030005         0.144086         0.294967
 C         1.525306        -0.009374         0.003958
 C         1.895408        -1.271790        -0.776089
 C         3.176459        -1.335058        -0.003774
 O         4.080078        -2.426531        -0.105479
 C         3.729046         0.013576         0.461334
 O         3.571411         1.189275        -0.265161
 C         2.134315         1.247242        -0.559747
 C         2.491289        -0.504518         1.204562
 H        -0.218589         0.953147         1.132868
 H        -0.451546         0.494829        -0.553521
 H        -0.497605        -0.828139         0.544628
 H         1.233701        -2.206147        -0.431371
 H         1.818642        -1.078918        -1.851482
 H         4.161251        -2.863161        -1.007090
 H         4.685629         0.055719         0.956917
 H         1.597822         2.119904        -0.148786
 H         2.213978         1.393596        -1.606674
 H         2.396652        -0.458669         2.353986
