19
Iteration:   618
 C        -0.010034         0.233827         0.333994
 C         1.465502        -0.076561         0.036800
 C         2.134808        -1.115934        -0.997109
 C         3.302973        -1.312247        -0.079673
 O         3.828527        -2.568539         0.101970
 C         3.810285         0.000631         0.493441
 O         3.521585         1.253550        -0.166984
 C         2.080504         1.258169        -0.556519
 C         2.586579        -0.605982         1.054035
 H        -0.253667         1.064996         0.885174
 H        -0.521148         0.319145        -0.624138
 H        -0.638825        -0.560809         0.788110
 H         1.624900        -2.038443        -1.006532
 H         2.318113        -0.738279        -2.006761
 H         3.888187        -3.036242        -0.798401
 H         4.792439         0.175959         0.955794
 H         1.734803         2.168100        -0.063720
 H         1.814423         1.308542        -1.661468
 H         2.331702        -1.011589         2.124465
