19
Iteration:  2734charge 0 multiplicity 1
 C        -0.015591         0.259363         0.291159
 C         1.442617        -0.060297         0.089138
 C         1.910559        -1.268644        -0.854103
 C         3.228790        -1.376947        -0.059327
 O         4.196815        -2.297387        -0.074083
 C         3.674945         0.006628         0.478920
 O         3.550286         1.080633        -0.394596
 C         2.129642         1.262174        -0.463773
 C         2.516380        -0.560100         1.126631
 H        -0.012222         1.102752         1.090025
 H        -0.521484         0.645079        -0.574422
 H        -0.531573        -0.501770         0.821668
 H         1.201013        -2.117063        -0.510114
 H         1.743949        -1.122982        -1.886413
 H         3.981717        -3.190317         0.229346
 H         4.707755        -0.083420         0.955104
 H         1.850751         1.991353         0.224851
 H         1.792423         1.485904        -1.478254
 H         2.335802        -0.690816         2.271304
