19
Iteration:  2580charge 0 multiplicity 1
 C        -0.064177         0.220024         0.299907
 C         1.417727        -0.061963         0.056582
 C         1.951415        -1.198585        -0.871364
 C         3.243522        -1.305762         0.008556
 O         4.032289        -2.465432        -0.019711
 C         3.768564        -0.037703         0.417671
 O         3.541142         1.104860        -0.395649
 C         2.116066         1.285615        -0.468195
 C         2.573557        -0.539870         1.188496
 H        -0.188174         0.945055         1.163494
 H        -0.641037         0.532147        -0.623870
 H        -0.493240        -0.711142         0.566799
 H         1.531780        -2.210955        -0.757939
 H         2.098022        -1.010356        -1.944174
 H         4.876766        -2.095303        -0.294468
 H         4.668200        -0.045980         0.941857
 H         1.789557         2.162289         0.208744
 H         1.766872         1.650333        -1.487781
 H         2.474150        -0.601082         2.249897
