19
Iteration:  1389
 C        -0.016257         0.366073         0.304277
 C         1.470938        -0.030149         0.037377
 C         2.039253        -1.240012        -0.949179
 C         3.315229        -1.339276        -0.033651
 O         4.068774        -2.530572        -0.127802
 C         3.657232        -0.002640         0.555035
 O         3.507550         1.148853        -0.249508
 C         2.131286         1.214002        -0.500244
 C         2.408477        -0.544257         1.191352
 H        -0.159253         1.238488         1.070838
 H        -0.471202         0.668279        -0.585517
 H        -0.441852        -0.577526         0.734674
 H         1.458644        -2.283792        -0.812820
 H         2.102809        -1.121666        -2.011133
 H         5.008665        -2.292534        -0.469328
 H         4.573644        -0.040636         1.073486
 H         1.718627         2.069978         0.107057
 H         2.025086         1.286762        -1.507432
 H         2.027952        -0.735312         2.136757
