19
Iteration:  3609charge 0 multiplicity 1
 C        -0.004007        -0.106253         0.309078
 C         1.505127         0.041439         0.054851
 C         2.037361        -1.052463        -0.890971
 C         3.159172        -1.322384         0.015185
 O         3.924130        -2.523263         0.147464
 C         3.759044         0.018194         0.263996
 O         3.566978         1.154876        -0.458493
 C         2.131587         1.365760        -0.352809
 C         2.608203        -0.405073         1.106168
 H        -0.434206         0.252227         1.162947
 H        -0.569225         0.379732        -0.584100
 H        -0.328470        -1.247678         0.304555
 H         1.384088        -1.972170        -0.936088
 H         2.241756        -0.855431        -1.989502
 H         3.411576        -3.387406         0.006175
 H         4.850263        -0.009416         0.638927
 H         1.966268         2.198590         0.388702
 H         1.734226         1.736257        -1.320140
 H         2.671525        -0.470327         2.198276
