19
Iteration:  2522charge 0 multiplicity 1
 C        -0.016206         0.133171         0.381098
 C         1.474708        -0.053980         0.082374
 C         1.979638        -1.231043        -0.906650
 C         3.243949        -1.293038        -0.036836
 O         4.008480        -2.474186         0.003860
 C         3.782247        -0.016114         0.445658
 O         3.529180         1.265329        -0.238570
 C         2.137198         1.274137        -0.575169
 C         2.541068        -0.483158         1.079244
 H        -0.162524         0.861137         1.041072
 H        -0.641619         0.426967        -0.594285
 H        -0.422794        -0.792895         0.868304
 H         1.469798        -2.081444        -0.745809
 H         2.213071        -1.178308        -1.995973
 H         3.507917        -2.971031        -0.708418
 H         4.805809        -0.158393         1.004137
 H         1.817621         2.225153        -0.179193
 H         1.932930         1.084796        -1.716095
 H         2.310758        -0.830486         2.110946
