19
Iteration:  1554
 C         0.053673         0.246510         0.260591
 C         1.548108         0.002902         0.042829
 C         1.878732        -1.268796        -0.846814
 C         3.201312        -1.357358        -0.081692
 O         4.158056        -2.358774        -0.042842
 C         3.705476        -0.074565         0.548086
 O         3.543817         1.148362        -0.231567
 C         2.132213         1.289562        -0.545002
 C         2.427581        -0.571075         1.121852
 H        -0.098051         1.149559         1.047735
 H        -0.476240         0.616152        -0.627047
 H        -0.591897        -0.649921         0.536227
 H         1.065501        -2.055399        -0.494224
 H         1.792546        -1.226726        -1.903688
 H         4.325720        -2.811233        -0.861904
 H         4.726471        -0.111657         1.095131
 H         1.807038         2.249388        -0.009511
 H         2.039963         1.178124        -1.543223
 H         1.962972        -0.979851         2.116269
