19
Iteration:  4323charge 0 multiplicity 1
 C         0.030321         0.103133         0.433820
 C         1.517858        -0.019934        -0.015498
 C         2.052094        -1.180481        -0.909009
 C         3.173386        -1.392990         0.124027
 O         4.000867        -2.492011        -0.104739
 C         3.690239        -0.015376         0.444230
 O         3.550614         1.118966        -0.447372
 C         2.122972         1.309629        -0.480645
 C         2.420482        -0.469520         1.154358
 H        -0.115907         0.973029         1.129967
 H        -0.761302         0.432029        -0.387806
 H        -0.291697        -0.752571         1.126359
 H         1.436880        -2.202858        -0.926832
 H         2.286866        -0.872188        -1.892247
 H         4.911014        -2.231855        -0.159842
 H         4.678796         0.173927         0.969762
 H         1.976209         2.031371         0.278844
 H         1.820461         1.766063        -1.516167
 H         2.281928        -0.178704         2.145714
