19
Iteration:  3721charge 0 multiplicity 1
 C        -0.070627         0.209187         0.256996
 C         1.458817        -0.029384         0.098905
 C         1.938219        -1.247923        -0.836031
 C         3.228240        -1.307436        -0.023309
 O         4.105837        -2.409909        -0.096212
 C         3.816581         0.003045         0.391762
 O         3.537589         1.167910        -0.287986
 C         2.161441         1.204262        -0.503100
 C         2.501255        -0.487101         1.219993
 H        -0.231139         1.024498         1.102637
 H        -0.424770         0.445480        -0.715633
 H        -0.620153        -0.647369         0.789042
 H         1.352137        -2.136777        -0.616860
 H         2.149225        -1.084353        -1.995171
 H         3.531873        -3.179814        -0.142076
 H         4.720953         0.082352         0.883508
 H         1.821726         2.138595        -0.091569
 H         1.791881         1.145110        -1.619327
 H         2.355378        -0.851053         2.248404
