19
Iteration:   369charge 0 multiplicity 1
 C         0.043605        -0.044229         0.255692
 C         1.535809         0.068430         0.013319
 C         1.977866        -1.050914        -0.990944
 C         3.185686        -1.330244        -0.172569
 O         3.840808        -2.462441         0.291960
 C         3.815799        -0.062882         0.413148
 O         3.589503         1.144272        -0.360734
 C         2.140399         1.442371        -0.292392
 C         2.542449        -0.567313         1.031772
 H        -0.666450         0.284172         1.141700
 H        -0.573691         0.104815        -0.749312
 H        -0.042678        -1.049631         0.346526
 H         1.298519        -1.859168        -1.012073
 H         2.233639        -0.845144        -2.070440
 H         4.262391        -2.847489        -0.511283
 H         4.784882        -0.108818         0.854465
 H         1.880561         2.195443         0.402859
 H         1.866852         1.969756        -1.392772
 H         2.311104        -1.015716         1.963572
