19
Iteration:   106charge 0 multiplicity 1
 C         0.023047         0.107147         0.239055
 C         1.512255        -0.044056        -0.031370
 C         2.085847        -1.127492        -0.977440
 C         3.205684        -1.332203         0.074116
 O         3.871717        -2.563925         0.062453
 C         3.744010         0.036167         0.460232
 O         3.539341         1.125899        -0.397772
 C         2.116730         1.301452        -0.354857
 C         2.537791        -0.485803         1.139874
 H        -0.076603         0.760098         1.213121
 H        -0.495683         0.647550        -0.633204
 H        -0.520635        -0.766747         0.512045
 H         1.369511        -1.975289        -1.005305
 H         2.502625        -0.812872        -1.997547
 H         4.576858        -2.562693        -0.642728
 H         4.633911         0.212081         0.956196
 H         1.924636         1.995450         0.526993
 H         1.722914         1.690881        -1.356818
 H         2.216820        -0.457622         2.156923
