19
Iteration:  4134
 C        -0.010206         0.184173         0.397622
 C         1.469370        -0.080264         0.061190
 C         1.965246        -1.226356        -0.914137
 C         3.209973        -1.358398        -0.013290
 O         3.965100        -2.508489        -0.050377
 C         3.764515         0.011697         0.380148
 O         3.542946         1.200396        -0.366030
 C         2.106377         1.286443        -0.466999
 C         2.587455        -0.497951         1.123839
 H        -0.088321         1.000195         1.021921
 H        -0.561220         0.578892        -0.501034
 H        -0.418293        -0.730529         0.894473
 H         1.283436        -2.208061        -0.832790
 H         2.209220        -1.000045        -1.893973
 H         4.761666        -2.329939         0.447014
 H         4.647625         0.159042         0.970108
 H         1.657186         2.180485         0.088853
 H         1.818498         1.150769        -1.595034
 H         2.585529        -0.513429         2.193712
