19
Iteration:   508
 C        -0.018627         0.065174         0.316763
 C         1.505123        -0.050820        -0.041069
 C         2.191383        -1.119426        -0.965198
 C         3.281133        -1.382042         0.004995
 O         3.717905        -2.702209         0.008225
 C         3.840361         0.036402         0.431190
 O         3.526896         1.288091        -0.332063
 C         2.062610         1.393295        -0.403920
 C         2.538246        -0.467878         1.102485
 H        -0.152091         0.789740         1.022528
 H        -0.441955         0.284815        -0.650284
 H        -0.356171        -0.944349         0.819248
 H         1.615651        -2.063458        -1.153233
 H         2.595048        -0.788559        -1.925468
 H         4.444278        -2.800594         0.580663
 H         4.805160         0.061152         0.872132
 H         1.729020         2.141466         0.372598
 H         1.743823         1.755030        -1.329575
 H         2.426964        -0.316203         2.182455
