19
Iteration:  4037
 C         0.022439        -0.041200         0.329919
 C         1.550150        -0.006403         0.136857
 C         2.061744        -1.013444        -0.959641
 C         3.207504        -1.352037        -0.053842
 O         3.849328        -2.591657         0.251170
 C         3.819530         0.029697         0.296513
 O         3.454026         1.167354        -0.531961
 C         2.060233         1.381019        -0.331015
 C         2.656424        -0.488528         1.088369
 H        -0.117168         0.809070         0.928455
 H        -0.612993         0.258568        -0.521294
 H        -0.292592        -1.075045         0.793752
 H         1.219111        -1.829773        -1.251188
 H         2.263491        -0.541949        -1.895769
 H         4.440755        -2.898314        -0.436305
 H         4.823898         0.010385         0.623565
 H         1.959524         2.203982         0.356861
 H         1.567208         1.690826        -1.313969
 H         2.493650        -0.756934         2.085880
