19
Iteration:  2630
 C         0.081832        -0.228204         0.487364
 C         1.513408         0.014263        -0.047849
 C         2.122363        -1.036183        -1.022418
 C         3.190102        -1.337768         0.001511
 O         3.725535        -2.607188         0.134651
 C         3.813502         0.065503         0.306601
 O         3.551114         1.221091        -0.483798
 C         2.089923         1.423048        -0.344509
 C         2.595261        -0.399945         1.014234
 H        -0.089665         0.461664         1.265170
 H        -0.734093        -0.164848        -0.285421
 H        -0.016626        -1.287422         0.904651
 H         1.279437        -1.701818        -1.151497
 H         2.672196        -0.896238        -2.000396
 H         3.927660        -2.650342         1.136238
 H         4.820634         0.047583         0.880322
 H         1.707800         2.150331         0.344181
 H         1.906516         1.842253        -1.345361
 H         2.356890        -0.436831         2.044436
