19
Iteration:  3682
 C         0.080264        -0.016899         0.413234
 C         1.490751         0.005192         0.003328
 C         1.966178        -1.172360        -1.014447
 C         3.168959        -1.300600        -0.032668
 O         4.007196        -2.517015         0.088668
 C         3.753011         0.020052         0.345293
 O         3.583173         1.229204        -0.311275
 C         2.136303         1.345448        -0.434559
 C         2.513582        -0.465277         1.024514
 H        -0.237849         0.799660         1.108675
 H        -0.703407        -0.001961        -0.422649
 H        -0.146278        -0.895250         0.952480
 H         1.130781        -1.914020        -0.973874
 H         2.093654        -1.138941        -2.066175
 H         3.498654        -3.088357         0.674699
 H         4.775884        -0.085943         0.759119
 H         1.712628         2.201391         0.189912
 H         1.934490         1.696196        -1.425548
 H         2.335563        -0.753828         2.062366
