19
Iteration:  1276charge 0 multiplicity 1
 C         0.023425        -0.128096         0.307217
 C         1.478570         0.053335        -0.050378
 C         2.125115        -0.931998        -1.077134
 C         3.167668        -1.351641        -0.099815
 O         3.776457        -2.539271         0.324644
 C         3.810446        -0.023861         0.337064
 O         3.550424         1.152138        -0.452182
 C         2.143165         1.411599        -0.173181
 C         2.538942        -0.547750         0.977744
 H        -0.203490         0.526380         1.116268
 H        -0.829951         0.054551        -0.486966
 H        -0.035956        -1.248628         0.662203
 H         1.405375        -1.675404        -1.433474
 H         2.632889        -0.385715        -1.983568
 H         4.492621        -2.847032        -0.299984
 H         4.748618        -0.000226         0.942653
 H         2.023742         1.995416         0.832320
 H         1.905904         1.897317        -1.051598
 H         2.312373        -0.707975         2.043223
