19
Iteration:   662charge 0 multiplicity 1
 C         0.095356        -0.034116         0.301099
 C         1.537202         0.111513        -0.067470
 C         1.957122        -1.172514        -0.963556
 C         3.129676        -1.285753        -0.052842
 O         3.869712        -2.487742         0.113677
 C         3.703936        -0.032545         0.471525
 O         3.629313         1.108506        -0.334905
 C         2.241632         1.436177        -0.393696
 C         2.424218        -0.512826         1.079859
 H        -0.224320         0.500197         1.139754
 H        -0.616014         0.192924        -0.536012
 H        -0.066731        -1.112997         0.507203
 H         1.319825        -1.981592        -0.781169
 H         2.097384        -1.043055        -2.044043
 H         4.750171        -2.313345        -0.360169
 H         4.681189        -0.256191         1.006260
 H         1.890164         2.145032         0.385414
 H         2.054395         1.947851        -1.444248
 H         2.195209        -0.933280         2.127321
