19
Iteration:  4041charge 0 multiplicity 1
 C         0.044853        -0.040789         0.324108
 C         1.556273         0.007908         0.121643
 C         2.026073        -1.024606        -0.932929
 C         3.204574        -1.399201        -0.067477
 O         3.843971        -2.569508         0.236122
 C         3.812350         0.038796         0.298360
 O         3.442507         1.162890        -0.509675
 C         2.039586         1.388681        -0.357887
 C         2.658693        -0.504724         1.083401
 H        -0.242894         0.865161         1.040992
 H        -0.500165         0.250011        -0.568722
 H        -0.224430        -0.992795         0.741376
 H         1.381395        -1.791413        -1.078237
 H         2.318356        -0.542588        -1.955555
 H         4.586009        -2.860428        -0.358453
 H         4.868203        -0.007386         0.591761
 H         2.025214         2.199892         0.400255
 H         1.712430         1.701406        -1.288776
 H         2.513101        -0.718913         2.182544
