19
Iteration:  4756
 C         0.078557        -0.061449         0.326214
 C         1.538082         0.023941         0.053875
 C         2.113604        -0.963088        -1.019621
 C         3.193555        -1.430190         0.062159
 O         3.936837        -2.518357         0.085491
 C         3.778347         0.037912         0.372579
 O         3.499844         1.086011        -0.471678
 C         2.012332         1.408150        -0.352536
 C         2.523186        -0.494414         1.101645
 H        -0.190282         0.551151         1.161751
 H        -0.353680         0.469785        -0.562157
 H        -0.113809        -1.217163         0.517519
 H         1.179559        -1.601340        -1.320450
 H         2.585275        -0.546435        -1.900608
 H         3.365559        -3.193174         0.372436
 H         4.734511         0.058735         0.946083
 H         1.975302         2.148574         0.485394
 H         1.669003         1.682025        -1.318591
 H         2.449646        -0.493773         2.218831
