19
Iteration:   696charge 0 multiplicity 1
 C        -0.015967         0.048072         0.291450
 C         1.481718         0.037150         0.025594
 C         2.164443        -1.018786        -1.015141
 C         3.224206        -1.351941         0.022284
 O         3.832570        -2.662092         0.102279
 C         3.763568        -0.026128         0.369307
 O         3.542108         1.129088        -0.449973
 C         2.087427         1.374452        -0.301729
 C         2.526510        -0.482837         1.108414
 H        -0.423955         0.686699         1.053009
 H        -0.520746         0.450238        -0.640120
 H        -0.414315        -0.926975         0.390178
 H         1.641541        -1.831750        -1.332860
 H         2.611518        -0.451388        -1.858393
 H         4.659886        -2.629072         0.597386
 H         4.738363         0.159337         0.906762
 H         1.978613         2.155180         0.508036
 H         1.661004         1.771576        -1.276592
 H         2.422000        -0.632174         2.167729
