19
Iteration:  2824charge 0 multiplicity 1
 C         0.092598        -0.055651         0.424890
 C         1.555345         0.015622        -0.007261
 C         2.092924        -1.073163        -1.020097
 C         3.168311        -1.390214        -0.053861
 O         3.920107        -2.484729         0.238397
 C         3.792411        -0.026625         0.339440
 O         3.485320         1.162516        -0.425918
 C         2.050019         1.407092        -0.416238
 C         2.534985        -0.466938         1.023261
 H        -0.088006         0.722724         1.323119
 H        -0.664422         0.045978        -0.230783
 H         0.010821        -1.030723         0.984638
 H         1.331002        -1.933391        -1.206787
 H         2.321751        -0.585951        -1.883302
 H         3.687768        -3.259437        -0.347569
 H         4.710592         0.063563         0.860655
 H         1.849843         2.091771         0.344309
 H         1.858214         1.818208        -1.385333
 H         2.196568        -0.502974         2.016632
