19
Iteration:   498charge 0 multiplicity 1
 C         0.064772         0.019107         0.289047
 C         1.584610         0.003561        -0.021727
 C         2.077044        -1.136794        -0.984119
 C         3.208304        -1.382635         0.038062
 O         3.794522        -2.768590         0.000253
 C         3.811654         0.010448         0.421925
 O         3.526031         1.363373        -0.274509
 C         2.073813         1.381578        -0.414879
 C         2.556818        -0.432390         1.061083
 H        -0.112716         0.874260         0.898835
 H        -0.587931         0.233723        -0.616404
 H        -0.476677        -0.849955         0.778913
 H         1.414832        -2.010989        -0.944542
 H         2.269037        -0.764271        -2.013408
 H         4.467542        -2.815696         0.678822
 H         4.770845         0.065692         0.850101
 H         1.699250         2.228470         0.264238
 H         1.775171         1.550556        -1.365656
 H         2.264553        -0.393076         2.138683
