19
Iteration:  1300
 C         0.093709        -0.039876         0.391669
 C         1.541051        -0.043228        -0.059300
 C         2.229430        -1.044897        -1.117890
 C         3.190635        -1.346075        -0.029265
 O         3.751997        -2.628590         0.098364
 C         3.718954         0.021920         0.484478
 O         3.541690         1.169039        -0.387047
 C         2.044008         1.435566        -0.336138
 C         2.513599        -0.426649         1.091356
 H         0.064490         0.807576         1.087369
 H        -0.624499         0.205979        -0.414947
 H        -0.223137        -1.064777         0.891398
 H         1.493616        -1.970630        -1.310585
 H         2.597536        -0.617649        -2.050750
 H         4.698052        -2.766438        -0.233976
 H         4.638909         0.079354         1.083228
 H         1.894265         2.112097         0.559504
 H         1.782847         1.783702        -1.318470
 H         2.132004        -0.706789         2.182579
