19
Iteration:  4879
 C         0.014633         0.036765         0.369116
 C         1.547886         0.032955        -0.023136
 C         2.034180        -1.181673        -0.880211
 C         3.182195        -1.338346         0.072328
 O         4.027567        -2.435926        -0.074524
 C         3.757723        -0.001604         0.466755
 O         3.537856         1.112380        -0.412893
 C         2.174658         1.339245        -0.444467
 C         2.404447        -0.442536         1.143625
 H        -0.017714         0.551179         1.333272
 H        -0.667578         0.525138        -0.341262
 H        -0.289251        -1.065420         0.411998
 H         1.306479        -1.962031        -1.033254
 H         2.319718        -1.047580        -1.877069
 H         3.411446        -3.169887        -0.140462
 H         4.655181        -0.010995         1.061363
 H         1.766320         2.177067         0.157594
 H         2.029021         1.603238        -1.489387
 H         2.196950        -0.563056         2.221337
