19
Iteration:  3416charge 0 multiplicity 1
 C         0.072816        -0.049849         0.407986
 C         1.545240         0.018061        -0.081830
 C         1.987273        -1.207209        -1.042855
 C         3.181784        -1.392536        -0.017349
 O         4.003216        -2.488359         0.147362
 C         3.755645        -0.022747         0.361900
 O         3.585999         1.246822        -0.357030
 C         2.085703         1.447218        -0.428573
 C         2.480496        -0.481933         1.044731
 H        -0.058077         0.842835         1.259961
 H        -0.600466         0.209203        -0.342980
 H        -0.165604        -0.967125         0.996223
 H         1.203985        -2.077652        -0.753707
 H         2.039756        -0.958510        -2.174261
 H         3.376426        -3.156233         0.352348
 H         4.683047        -0.019768         0.836565
 H         1.756898         2.118687         0.457440
 H         1.857824         1.957644        -1.361436
 H         2.319731        -0.618819         2.106586
