19
Iteration:  3878charge 0 multiplicity 1
 C         0.055538        -0.054446         0.409485
 C         1.536283         0.047952         0.076131
 C         1.973761        -1.054435        -0.934122
 C         3.215024        -1.304578        -0.079615
 O         3.927833        -2.459501         0.037193
 C         3.768912        -0.047203         0.444222
 O         3.590817         1.105385        -0.493201
 C         2.084300         1.363525        -0.484374
 C         2.538049        -0.510412         1.160363
 H        -0.478128         0.641312         1.211624
 H        -0.560822         0.177277        -0.457039
 H        -0.069631        -1.073497         0.530752
 H         1.170924        -1.793103        -0.908139
 H         2.176969        -0.652195        -2.005663
 H         4.037921        -2.732393         0.928883
 H         4.701263        -0.106153         0.989315
 H         1.807984         2.101666         0.202107
 H         1.745526         1.568209        -1.552304
 H         2.251964        -0.555770         2.199692
