19
Iteration:  3306
 C        -0.051005         0.073378         0.373501
 C         1.445310        -0.013983         0.063630
 C         1.974356        -1.134481        -0.960463
 C         3.187850        -1.342841        -0.060859
 O         4.087455        -2.422884         0.101006
 C         3.774308         0.045804         0.443422
 O         3.580664         1.099099        -0.479131
 C         2.104866         1.319737        -0.428522
 C         2.549746        -0.524369         1.063639
 H        -0.091510         0.864784         1.276426
 H        -0.500662         0.521060        -0.464165
 H        -0.609984        -0.784800         0.842434
 H         1.337965        -2.143103        -0.870273
 H         2.144585        -0.848977        -2.044689
 H         3.503633        -3.218746         0.313478
 H         4.746871        -0.097275         0.918268
 H         1.798770         2.170891         0.349986
 H         1.861451         1.548754        -1.419464
 H         2.441891        -0.714233         2.165650
