19
Iteration:  1118charge 0 multiplicity 1
 C        -0.022514         0.041071         0.242599
 C         1.502556        -0.052737         0.036843
 C         2.108903        -1.028055        -1.006715
 C         3.279331        -1.270958         0.052626
 O         3.739397        -2.618045         0.052600
 C         3.861881         0.020135         0.514063
 O         3.563741         1.180130        -0.418280
 C         2.055683         1.310320        -0.369229
 C         2.567001        -0.500464         1.154963
 H        -0.195110         0.751548         1.173208
 H        -0.461317         0.350853        -0.752876
 H        -0.433848        -0.934658         0.300978
 H         1.621016        -2.034198        -0.980231
 H         2.356721        -0.584329        -2.105884
 H         4.417659        -2.646839        -0.618754
 H         4.798460         0.120287         1.085666
 H         1.838338         2.161487         0.371220
 H         1.687406         1.583502        -1.398891
 H         2.419073        -0.802422         2.237050
