19
Iteration:  4069
 C         0.020237        -0.019662         0.360026
 C         1.503795         0.004753         0.031586
 C         1.941578        -1.210829        -0.898594
 C         3.177090        -1.378174        -0.044682
 O         3.901039        -2.519355         0.064616
 C         3.797582         0.020078         0.348791
 O         3.582924         1.204564        -0.437955
 C         2.134709         1.366470        -0.390001
 C         2.538413        -0.388813         1.095994
 H        -0.023877         0.612774         1.191421
 H        -0.698364         0.287236        -0.442507
 H        -0.358897        -0.966109         0.901373
 H         1.222297        -2.134545        -0.579812
 H         2.061432        -1.082910        -1.932976
 H         4.904970        -2.417125        -0.049542
 H         4.725876        -0.072024         0.848526
 H         2.049668         2.192633         0.333942
 H         1.832408         1.692100        -1.488297
 H         2.315721        -0.605831         2.105021
