19
Iteration:  2436
 C         0.024726        -0.155792         0.227504
 C         1.576561         0.069223         0.108263
 C         2.127182        -0.970683        -0.919233
 C         3.220442        -1.299559         0.030922
 O         3.753721        -2.575644         0.153840
 C         3.803294         0.043263         0.359952
 O         3.517786         1.087604        -0.541086
 C         2.034640         1.413803        -0.308820
 C         2.572736        -0.483384         1.110967
 H        -0.509624         0.229214         1.097219
 H        -0.500329         0.336371        -0.726421
 H        -0.196645        -1.240762         0.170908
 H         1.423853        -1.823285        -0.884349
 H         2.463936        -0.765296        -2.006975
 H         4.683089        -2.650307        -0.195078
 H         4.843178         0.006193         0.836927
 H         2.072949         2.135968         0.554225
 H         1.613682         1.912504        -1.226819
 H         2.576086        -0.542237         2.220003
