19
Iteration:  4423charge 0 multiplicity 1
 C         0.032300        -0.108308         0.536165
 C         1.468808        -0.011472         0.022494
 C         2.098086        -1.048797        -0.998682
 C         3.178966        -1.255558         0.016635
 O         3.793284        -2.534477         0.030061
 C         3.811780         0.026284         0.380455
 O         3.580832         1.129893        -0.530619
 C         2.121426         1.368839        -0.473954
 C         2.524513        -0.468276         1.106369
 H        -0.149140         0.545324         1.472182
 H        -0.636959         0.120958        -0.272323
 H        -0.295555        -1.060380         0.848534
 H         1.540179        -1.927843        -0.952715
 H         2.417527        -0.783716        -2.034810
 H         4.368550        -2.622660         0.878151
 H         4.672186         0.007858         0.993105
 H         2.123311         2.164007         0.172159
 H         1.855026         1.801373        -1.445756
 H         2.420331        -0.610963         2.218909
