19
Iteration:  2635
 C         0.100024        -0.286810         0.491043
 C         1.528904        -0.007372        -0.037705
 C         2.106744        -1.008351        -1.021084
 C         3.126928        -1.309028        -0.034853
 O         3.710425        -2.619746         0.160268
 C         3.847665         0.100145         0.285186
 O         3.584411         1.221960        -0.469816
 C         2.100942         1.417981        -0.368684
 C         2.600583        -0.363139         1.023637
 H        -0.211331         0.401716         1.377310
 H        -0.677569        -0.218509        -0.334849
 H         0.043507        -1.290373         0.816615
 H         1.433860        -1.911242        -1.132074
 H         2.523013        -0.778174        -1.993817
 H         3.807579        -2.830840         1.065802
 H         4.693834         0.109407         0.870537
 H         1.933549         2.182499         0.474596
 H         1.745780         1.786935        -1.372667
 H         2.185512        -0.410521         2.076210
