19
Iteration:  3626
 C         0.063329        -0.139862         0.309715
 C         1.520784         0.047157         0.114873
 C         2.086979        -0.984470        -1.039416
 C         3.191637        -1.355168         0.024855
 O         3.870367        -2.515522         0.212919
 C         3.873028        -0.046500         0.348099
 O         3.455493         1.122830        -0.565703
 C         2.063383         1.459801        -0.383795
 C         2.628156        -0.485985         1.140637
 H        -0.196436         0.260832         1.385535
 H        -0.565671         0.334573        -0.430321
 H        -0.185297        -1.137698         0.424227
 H         1.263873        -1.666127        -1.304467
 H         2.578664        -0.466523        -1.817407
 H         3.125398        -3.204095         0.069660
 H         4.776089         0.058203         0.812099
 H         1.845886         2.172606         0.423290
 H         1.626409         1.688881        -1.384101
 H         2.531596        -0.503225         2.241199
