19
Iteration:  2119charge 0 multiplicity 1
 C        -0.043640         0.147742         0.347757
 C         1.457706        -0.086973         0.073421
 C         2.024902        -1.160351        -1.031648
 C         3.244140        -1.342279        -0.031658
 O         4.001793        -2.521201         0.088261
 C         3.779724        -0.017090         0.451192
 O         3.565738         1.163022        -0.382615
 C         2.090740         1.334854        -0.394072
 C         2.488028        -0.527905         1.069978
 H        -0.223653         0.952510         1.040443
 H        -0.622655         0.390217        -0.542531
 H        -0.595134        -0.780833         0.759552
 H         1.396409        -2.055982        -1.162179
 H         2.156671        -0.660807        -2.020333
 H         4.871791        -2.315572        -0.189328
 H         4.751115         0.073036         1.052847
 H         1.745165         2.098031         0.221473
 H         1.793705         1.707691        -1.429013
 H         2.286946        -0.667336         2.118756
