19
Iteration:  2451charge 0 multiplicity 1
 C         0.011291        -0.222701         0.273808
 C         1.461117         0.018244         0.024888
 C         2.050151        -1.021033        -1.044263
 C         3.222571        -1.306935         0.008033
 O         3.770737        -2.603743         0.162370
 C         3.836107         0.041664         0.389896
 O         3.542861         1.116631        -0.576599
 C         2.181559         1.457029        -0.229237
 C         2.568428        -0.381538         1.103387
 H        -0.397463         0.317754         1.294613
 H        -0.494030         0.183103        -0.520673
 H        -0.185844        -1.275722         0.349274
 H         1.360556        -1.965907        -1.219382
 H         2.214528        -0.537211        -1.981763
 H         4.650971        -2.441925         0.618766
 H         4.739626         0.253480         0.946709
 H         2.115872         2.040457         0.719762
 H         1.754644         1.945583        -1.072592
 H         2.381070        -0.552974         2.122752
