19
Iteration:   119
 C         0.101943         0.083607         0.260055
 C         1.546231         0.003195         0.063431
 C         2.145337        -1.072990        -1.027498
 C         3.198944        -1.393911         0.035954
 O         3.854228        -2.643758         0.159186
 C         3.788792         0.021149         0.447735
 O         3.447334         1.144409        -0.482891
 C         2.042008         1.404180        -0.350283
 C         2.493604        -0.509559         1.156018
 H        -0.259647         0.845316         1.088519
 H        -0.354323         0.488279        -0.720109
 H        -0.272979        -0.869972         0.272475
 H         1.676230        -1.920866        -1.391671
 H         2.505269        -0.463932        -1.992630
 H         4.419175        -2.666985        -0.607298
 H         4.733886        -0.050836         0.999390
 H         1.783743         2.149578         0.474021
 H         1.671329         1.901910        -1.246141
 H         2.599481        -0.667033         2.242145
