19
Iteration:  4690
 C         0.124824         0.043735         0.372420
 C         1.546439        -0.005610         0.048401
 C         1.943722        -1.136547        -0.963690
 C         3.133707        -1.310939        -0.059647
 O         4.016064        -2.554966         0.097488
 C         3.745353         0.011080         0.394952
 O         3.539433         1.222797        -0.240791
 C         2.067650         1.300675        -0.546087
 C         2.528153        -0.492028         1.112279
 H        -0.174736         0.861891         0.971773
 H        -0.416438         0.409097        -0.526473
 H        -0.365604        -0.893195         0.864515
 H         1.093413        -1.947017        -1.106175
 H         2.267330        -0.740341        -1.945003
 H         4.205581        -2.798028        -0.892626
 H         4.649986         0.014295         0.943199
 H         1.708721         2.135883         0.116015
 H         1.893714         1.334379        -1.643893
 H         2.314502        -0.792044         2.176169
