19
Iteration:    95
 C        -0.041977         0.101522         0.275048
 C         1.480218        -0.024639        -0.047805
 C         2.052937        -1.168643        -0.865821
 C         3.214232        -1.323258        -0.035235
 O         3.910736        -2.503620         0.056514
 C         3.787570         0.001175         0.502336
 O         3.607836         1.135207        -0.362770
 C         2.164105         1.288289        -0.367118
 C         2.448442        -0.466738         1.054187
 H        -0.109434         0.882186         1.162551
 H        -0.698527         0.607057        -0.536054
 H        -0.496044        -0.846633         0.445448
 H         1.401839        -2.068498        -0.693528
 H         2.099279        -1.043774        -2.026435
 H         4.667868        -2.259831        -0.590073
 H         4.663042        -0.166721         1.037797
 H         1.716152         2.138704         0.247278
 H         2.075860         1.651218        -1.449141
 H         2.255708        -0.701818         2.075876
