19
Iteration:   544charge 0 multiplicity 1
 C         0.083735        -0.069905         0.294916
 C         1.515775         0.061833         0.047833
 C         2.023211        -0.954785        -1.009970
 C         3.192007        -1.310988        -0.029204
 O         3.863158        -2.534500         0.125352
 C         3.742153        -0.058625         0.505521
 O         3.577646         1.031425        -0.520071
 C         2.169920         1.420135        -0.359105
 C         2.451644        -0.539993         1.102733
 H        -0.400465         0.429253         1.215215
 H        -0.602046         0.353731        -0.572099
 H        -0.222764        -1.040397         0.305027
 H         1.266269        -1.657884        -1.168683
 H         2.421444        -0.500667        -2.007480
 H         4.715074        -2.322428         0.441439
 H         4.757250        -0.076322         0.953274
 H         1.972419         2.140019         0.529559
 H         1.996005         1.946728        -1.244082
 H         2.038090        -0.610432         2.183283
