19
Iteration:  2836charge 0 multiplicity 1
 C         0.083605        -0.097846         0.428105
 C         1.509489         0.043313        -0.034806
 C         2.046241        -0.967933        -1.072318
 C         3.154549        -1.363744        -0.010057
 O         3.955052        -2.516169         0.292782
 C         3.774559         0.022469         0.354523
 O         3.529264         1.127569        -0.564240
 C         2.083799         1.397023        -0.283552
 C         2.521537        -0.491708         1.041989
 H        -0.258882         0.672858         1.246325
 H        -0.509983         0.012612        -0.442944
 H        -0.132747        -1.167916         0.737178
 H         1.210480        -1.741240        -1.288837
 H         2.512806        -0.704850        -1.968880
 H         3.786677        -3.333221        -0.251917
 H         4.795721        -0.084751         0.676574
 H         1.851022         2.048583         0.521501
 H         1.590132         1.792566        -1.140977
 H         2.460998        -0.577457         2.126146
