19
Iteration:  3446
 C         0.016364        -0.084915         0.380899
 C         1.534814        -0.001146         0.029487
 C         2.127715        -0.955656        -1.082968
 C         3.218934        -1.304388        -0.004728
 O         3.921102        -2.484785         0.229740
 C         3.809997         0.006213         0.327465
 O         3.522043         1.057555        -0.600100
 C         2.081755         1.358776        -0.267751
 C         2.492669        -0.482264         1.065002
 H        -0.034029         0.515873         1.349846
 H        -0.566764         0.382840        -0.376462
 H        -0.389296        -1.138508         0.650754
 H         1.447449        -1.729499        -1.215193
 H         2.279368        -0.548323        -2.097020
 H         3.258201        -3.058759         0.703136
 H         4.685544         0.018397         0.886484
 H         2.012276         1.921244         0.651627
 H         1.602415         1.912530        -1.199072
 H         2.372036        -0.686409         2.149668
