19
Iteration:  4095charge 0 multiplicity 1
 C         0.009343         0.131222         0.451957
 C         1.480612         0.025908         0.030301
 C         1.980038        -1.244570        -0.912884
 C         3.209977        -1.335463         0.031408
 O         3.969502        -2.471140        -0.094767
 C         3.761482         0.010224         0.461917
 O         3.557856         1.123148        -0.388448
 C         2.128757         1.269470        -0.567294
 C         2.461497        -0.456083         1.114097
 H         0.016420         0.740692         1.438799
 H        -0.731639         0.364960        -0.292877
 H        -0.308650        -0.826304         0.923889
 H         1.460734        -2.108465        -0.663187
 H         2.081742        -1.082523        -2.071914
 H         4.943622        -2.327707         0.136734
 H         4.516061         0.072297         1.280439
 H         1.930677         2.214091        -0.087034
 H         1.954246         1.399273        -1.557638
 H         2.452726        -0.495159         2.256407
