19
Iteration:  3277
 C         0.105097        -0.122391         0.422733
 C         1.544631         0.054254         0.051022
 C         2.160331        -1.017386        -1.035875
 C         3.162724        -1.359649         0.006123
 O         3.830109        -2.584431         0.169343
 C         3.824227         0.088225         0.323135
 O         3.474820         1.142962        -0.523684
 C         2.023606         1.390163        -0.345033
 C         2.590834        -0.465781         1.034374
 H        -0.070078         0.601198         1.176974
 H        -0.480716         0.211567        -0.504136
 H        -0.141456        -1.083464         0.740351
 H         1.574697        -1.855207        -1.158597
 H         2.529037        -0.718095        -1.963479
 H         3.292263        -3.098174         0.861580
 H         4.733533         0.082502         0.833391
 H         1.726551         2.070032         0.375046
 H         1.624410         1.732167        -1.374479
 H         2.533351        -0.494298         2.154754
