19
Iteration:  3296
 C         0.003461         0.052254         0.394116
 C         1.524038        -0.055133         0.020576
 C         2.027971        -1.079535        -0.970648
 C         3.290156        -1.309377        -0.067748
 O         3.977022        -2.465207         0.135861
 C         3.781065         0.010365         0.420596
 O         3.492027         1.088501        -0.494739
 C         2.099145         1.334308        -0.411826
 C         2.546018        -0.491119         1.095017
 H        -0.140338         0.883597         1.241798
 H        -0.645608         0.370529        -0.407388
 H        -0.384984        -0.972222         0.635663
 H         1.245396        -1.932794        -1.131052
 H         2.123804        -0.602001        -1.944303
 H         3.413120        -3.190782         0.583217
 H         4.795650         0.072792         0.795642
 H         1.854619         2.261608         0.319914
 H         1.650813         1.593270        -1.339582
 H         2.467397        -0.804597         2.178247
