19
Iteration:  2397
 C        -0.008065         0.086979         0.347122
 C         1.468211        -0.025359        -0.006978
 C         2.066383        -1.197370        -0.954025
 C         3.233273        -1.327304        -0.061484
 O         4.016791        -2.503449         0.093500
 C         3.733175         0.020422         0.452576
 O         3.579254         1.239111        -0.307473
 C         2.088592         1.283064        -0.456876
 C         2.514520        -0.492964         1.067562
 H        -0.107694         0.983257         1.109700
 H        -0.593054         0.280196        -0.465560
 H        -0.396606        -0.790181         0.814307
 H         1.338652        -2.077740        -0.869797
 H         2.253122        -0.982027        -1.936962
 H         3.557140        -3.185595        -0.475987
 H         4.728553        -0.041992         0.951719
 H         1.531235         2.112941         0.032340
 H         1.924225         1.533643        -1.492320
 H         2.222888        -0.574775         2.063066
