19
Iteration:  1895charge 0 multiplicity 1
 C         0.132272        -0.126841         0.376239
 C         1.570913        -0.003953        -0.079371
 C         2.019379        -1.172041        -0.995756
 C         3.154322        -1.307215        -0.061369
 O         3.779647        -2.551369         0.081220
 C         3.767588         0.041523         0.397614
 O         3.546914         1.229163        -0.285327
 C         2.132160         1.415621        -0.411542
 C         2.554153        -0.484287         1.031218
 H        -0.128930         0.758496         1.059273
 H        -0.555726         0.086071        -0.505960
 H        -0.105829        -0.989077         0.911931
 H         1.248405        -1.989947        -0.827665
 H         2.296959        -0.960584        -2.101272
 H         4.559691        -2.484776         0.697368
 H         4.701605         0.169264         1.075624
 H         1.679351         2.148153         0.275762
 H         1.956477         1.783155        -1.570946
 H         2.287380        -0.527290         2.119159
