19
Iteration:  1961
 C         0.036674         0.248568         0.241195
 C         1.508895        -0.037295         0.061402
 C         1.940678        -1.254699        -0.824142
 C         3.213243        -1.367853        -0.029171
 O         4.099476        -2.417789        -0.168233
 C         3.687330         0.022299         0.563011
 O         3.517251         1.118612        -0.267001
 C         2.124652         1.197699        -0.529537
 C         2.449246        -0.541253         1.231198
 H         0.128631         1.087028         1.039553
 H        -0.238118         0.910873        -0.696931
 H        -0.543921        -0.577870         0.473182
 H         1.224980        -2.083961        -0.538454
 H         2.007640        -1.251424        -1.991950
 H         4.894577        -1.945623        -0.394765
 H         4.616878        -0.032471         1.093025
 H         1.703421         2.152169        -0.155698
 H         1.876709         1.234900        -1.724015
 H         2.072449        -0.729604         2.253353
