19
Iteration:  1130charge 0 multiplicity 1
 C         0.064071         0.052645         0.239129
 C         1.532868         0.034431         0.027277
 C         2.055851        -1.123752        -0.920221
 C         3.249721        -1.312950        -0.056537
 O         3.812039        -2.607137         0.028223
 C         3.743422         0.055663         0.493168
 O         3.541478         1.161472        -0.321443
 C         2.111806         1.355155        -0.394006
 C         2.542102        -0.505906         1.097363
 H        -0.382075         0.694802         1.111812
 H        -0.441822         0.588360        -0.669640
 H        -0.328557        -0.906672         0.472430
 H         1.380978        -1.969022        -0.792450
 H         2.265142        -1.156556        -2.118329
 H         4.685161        -2.624519        -0.382508
 H         4.650196         0.091269         1.116684
 H         1.714766         2.180708         0.301464
 H         1.834440         1.604220        -1.418709
 H         2.502027        -0.842981         2.196590
