19
Iteration:  4058
 C         0.070088         0.003201         0.371991
 C         1.542952         0.057344         0.037419
 C         1.966431        -1.162276        -0.938096
 C         3.173521        -1.296731        -0.008850
 O         3.877418        -2.566894         0.139909
 C         3.804125        -0.022336         0.303102
 O         3.517071         1.162748        -0.444578
 C         2.095099         1.390804        -0.363079
 C         2.609964        -0.483271         1.079566
 H        -0.312640         0.705569         1.041820
 H        -0.540018         0.205094        -0.580837
 H        -0.084899        -1.117622         0.579279
 H         1.113762        -2.030327        -0.771130
 H         1.990297        -1.052763        -1.976058
 H         4.757757        -2.292647        -0.158042
 H         4.706579         0.063379         0.850772
 H         1.707961         2.144138         0.361170
 H         1.657881         1.743692        -1.417242
 H         2.682006        -0.551099         2.118450
