19
Iteration:  2613charge 0 multiplicity 1
 C         0.113251        -0.031054         0.440698
 C         1.534457         0.031333        -0.010360
 C         2.113440        -1.107891        -1.043690
 C         3.197113        -1.331180        -0.038367
 O         3.839883        -2.606270         0.128735
 C         3.784907         0.008776         0.362250
 O         3.456933         1.176599        -0.448336
 C         2.052206         1.432439        -0.418460
 C         2.546782        -0.490666         1.082719
 H        -0.118682         0.750949         1.242605
 H        -0.631407         0.084020        -0.409697
 H        -0.050351        -0.982472         0.871388
 H         1.611231        -2.079195        -1.139530
 H         2.294927        -0.621162        -1.991167
 H         4.510862        -2.717843         0.879946
 H         4.704048         0.105342         0.821460
 H         1.955430         2.161753         0.449691
 H         1.532965         1.797877        -1.346929
 H         2.467051        -0.574851         2.185594
