19
Iteration:  2756charge 0 multiplicity 1
 C        -0.039849         0.213815         0.309357
 C         1.480229         0.008399         0.074427
 C         1.836917        -1.301269        -0.791011
 C         3.179880        -1.370037         0.000099
 O         4.182812        -2.348982        -0.175269
 C         3.729827        -0.070154         0.395268
 O         3.552437         1.225590        -0.237755
 C         2.150704         1.211004        -0.576001
 C         2.568309        -0.487336         1.200994
 H        -0.293085         1.044464         1.068280
 H        -0.405437         0.571904        -0.635096
 H        -0.581304        -0.648829         0.627955
 H         1.251113        -2.275082        -0.669648
 H         2.065278        -1.162387        -1.807703
 H         3.912479        -3.178670         0.326382
 H         4.766755        -0.146803         0.865186
 H         1.735999         2.085427        -0.211302
 H         1.877746         1.030947        -1.619244
 H         2.184213        -0.595988         2.261355
