19
Iteration:   968
 C         0.007017         0.084526         0.235653
 C         1.498435         0.012338        -0.018034
 C         1.887510        -1.193287        -0.895211
 C         3.148008        -1.326819        -0.039560
 O         3.996827        -2.384123        -0.064562
 C         3.700049        -0.064061         0.542197
 O         3.695456         1.079523        -0.403651
 C         2.232763         1.361783        -0.314391
 C         2.426077        -0.560530         1.097761
 H        -0.226822         0.635093         1.101959
 H        -0.512775         0.603325        -0.695507
 H        -0.435619        -0.828935         0.521181
 H         1.242819        -1.947942        -0.628506
 H         1.829463        -1.122308        -2.044960
 H         4.656394        -2.291060         0.592056
 H         4.711204        -0.154126         0.903292
 H         1.892903         2.064113         0.534264
 H         2.008163         1.843456        -1.337686
 H         2.103408        -0.505403         2.192353
