19
Iteration:  1283charge 0 multiplicity 1
 C         0.064777        -0.099462         0.360596
 C         1.486225         0.047181        -0.075681
 C         2.162396        -0.962034        -1.125173
 C         3.181631        -1.329327        -0.005612
 O         3.744925        -2.578185         0.266819
 C         3.828026        -0.006838         0.354913
 O         3.516133         1.155009        -0.419718
 C         2.145389         1.341695        -0.221206
 C         2.501114        -0.538274         0.977389
 H        -0.222658         0.632359         1.176046
 H        -0.724091        -0.008365        -0.409136
 H        -0.143381        -1.044792         0.692378
 H         1.565044        -1.743550        -1.490912
 H         2.698385        -0.393733        -1.904166
 H         4.551150        -2.533824        -0.374444
 H         4.750264         0.034020         0.884608
 H         1.844026         1.915549         0.682258
 H         1.837316         2.129428        -1.034287
 H         2.361092        -0.464912         2.000462
