19
Iteration:   993
 C        -0.049230         0.226004         0.258863
 C         1.476399        -0.038389         0.042522
 C         2.091278        -1.153532        -0.921119
 C         3.187431        -1.367881         0.056775
 O         3.978769        -2.524157        -0.145755
 C         3.708494        -0.047723         0.496988
 O         3.574017         1.096469        -0.306806
 C         2.156078         1.284228        -0.422111
 C         2.441353        -0.444453         1.140871
 H        -0.149762         0.889679         1.126307
 H        -0.507323         0.746062        -0.532274
 H        -0.601191        -0.707255         0.537311
 H         1.411349        -2.094251        -0.909955
 H         2.368532        -0.897731        -1.921714
 H         4.889266        -2.359106         0.179764
 H         4.730881        -0.019073         0.923961
 H         1.741506         2.065428         0.253760
 H         2.047071         1.598484        -1.555024
 H         2.219142        -0.691757         2.259089
