19
Iteration:  2106
 C        -0.013389        -0.044329         0.335897
 C         1.482866        -0.003943         0.001630
 C         2.005132        -0.988232        -0.999738
 C         3.187267        -1.328350        -0.015770
 O         3.898118        -2.534680         0.180722
 C         3.801968        -0.013663         0.342701
 O         3.555129         1.205745        -0.353007
 C         2.114761         1.297198        -0.412028
 C         2.548022        -0.524406         1.099662
 H        -0.157934         0.654956         1.092249
 H        -0.565368         0.351458        -0.620494
 H        -0.394667        -1.041678         0.739627
 H         1.510182        -1.874095        -1.093001
 H         2.351718        -0.618552        -2.021603
 H         4.664753        -2.537299        -0.498041
 H         4.830128        -0.076510         0.904425
 H         1.905287         2.098978         0.292283
 H         1.757519         1.480865        -1.497332
 H         2.459637        -0.712814         2.194204
