19
Iteration:  4352
 C        -0.004949        -0.023926         0.388248
 C         1.528876         0.024771         0.088400
 C         1.951753        -1.089850        -0.953912
 C         3.220844        -1.309476        -0.116152
 O         3.902760        -2.506390         0.081161
 C         3.769300        -0.006566         0.395072
 O         3.582396         1.106898        -0.443297
 C         2.102570         1.354284        -0.457145
 C         2.586950        -0.469597         1.097937
 H        -0.234486         0.673958         1.156794
 H        -0.597622         0.042830        -0.581369
 H        -0.496838        -0.935547         0.948084
 H         1.314556        -2.013894        -0.702142
 H         1.872058        -0.751695        -2.016716
 H         4.720391        -2.471772         0.688043
 H         4.780090         0.134082         0.839118
 H         1.896494         2.195223         0.321566
 H         1.730583         1.722269        -1.387367
 H         2.527312        -0.767381         2.166308
