19
Iteration:  1639
 C         0.005989        -0.240268         0.415257
 C         1.512569         0.033958        -0.073252
 C         2.081961        -1.040837        -1.138185
 C         3.101506        -1.294046        -0.052897
 O         3.766880        -2.539363         0.246589
 C         3.823999        -0.004465         0.382813
 O         3.612615         1.114853        -0.385513
 C         2.169445         1.472296        -0.311556
 C         2.521693        -0.407856         1.013736
 H        -0.350689         0.361433         1.312414
 H        -0.531449         0.023741        -0.428163
 H        -0.127113        -1.332868         0.769392
 H         1.345260        -1.918286        -1.354221
 H         2.302798        -0.464888        -2.070889
 H         4.697502        -2.406005        -0.022051
 H         4.870847        -0.173079         0.863500
 H         1.923472         2.128307         0.501792
 H         1.862928         2.050061        -1.362919
 H         2.459565        -0.509644         2.141384
