19
Iteration:  2609charge 0 multiplicity 1
 C         0.118613         0.037859         0.438441
 C         1.519175        -0.015099         0.026465
 C         2.081733        -1.097067        -1.026769
 C         3.210072        -1.324808        -0.037485
 O         3.872676        -2.612263         0.112619
 C         3.755386         0.031496         0.346102
 O         3.467959         1.159092        -0.450534
 C         2.057620         1.401491        -0.398867
 C         2.552937        -0.498104         1.093935
 H        -0.093466         0.745894         1.130226
 H        -0.575058         0.115376        -0.505103
 H        -0.175612        -0.994686         0.815664
 H         1.608000        -2.038884        -1.086863
 H         2.363369        -0.697432        -2.063814
 H         4.566013        -2.543613         0.762682
 H         4.748543         0.122979         0.935011
 H         1.848987         2.151087         0.308728
 H         1.577108         1.783376        -1.350718
 H         2.268149        -0.632765         2.109492
