19
Iteration:  1397
 C        -0.055038         0.312923         0.366025
 C         1.480022        -0.089048         0.046633
 C         2.067409        -1.188197        -1.014487
 C         3.242843        -1.326635        -0.024082
 O         4.026838        -2.539380        -0.076883
 C         3.722237        -0.005236         0.507364
 O         3.562815         1.123167        -0.251339
 C         2.108005         1.195741        -0.488631
 C         2.421441        -0.489955         1.157245
 H        -0.018844         1.137894         1.022091
 H        -0.616823         0.510371        -0.610461
 H        -0.659410        -0.640523         0.664360
 H         1.592622        -2.124342        -1.013468
 H         2.326443        -0.797523        -2.061426
 H         4.932675        -2.202941        -0.380824
 H         4.563239         0.059348         1.180382
 H         1.665109         2.159495         0.102111
 H         1.945748         1.426611        -1.577394
 H         2.130041        -0.600213         2.286214
