19
Iteration:  4009
 C         0.037800        -0.084014         0.444026
 C         1.505475         0.009306         0.013111
 C         2.153264        -1.094136        -0.963740
 C         3.227340        -1.301369        -0.023209
 O         3.812378        -2.526988         0.185097
 C         3.800217         0.065594         0.370325
 O         3.486873         1.102657        -0.523671
 C         2.102223         1.374672        -0.379095
 C         2.585515        -0.456804         1.013753
 H        -0.075967         0.768313         1.275463
 H        -0.719797        -0.041718        -0.327879
 H        -0.136064        -0.997534         0.950044
 H         1.573566        -1.890119        -1.167376
 H         2.389296        -0.619463        -2.006769
 H         3.617868        -3.246331        -0.464943
 H         4.768112         0.167088         0.871967
 H         1.988839         2.061460         0.599779
 H         1.699124         2.036857        -1.169415
 H         2.302151        -0.416699         2.107507
