19
Iteration:   115
 C         0.087078         0.111421         0.252300
 C         1.537353        -0.015304         0.031028
 C         2.120163        -1.084793        -1.032159
 C         3.202143        -1.385097         0.069840
 O         3.859686        -2.613534         0.115074
 C         3.788149         0.043957         0.448576
 O         3.469466         1.133940        -0.448435
 C         2.071349         1.365809        -0.367239
 C         2.497431        -0.500391         1.177075
 H        -0.195850         0.792551         1.108197
 H        -0.335700         0.545492        -0.691421
 H        -0.380873        -0.939433         0.378157
 H         1.568789        -2.100114        -1.358934
 H         2.475439        -0.622827        -1.945292
 H         4.512570        -2.704188        -0.635803
 H         4.674633         0.009951         1.021653
 H         1.845217         2.084005         0.490275
 H         1.556434         1.935105        -1.271247
 H         2.500754        -0.567836         2.247801
