19
Iteration:  1897charge 0 multiplicity 1
 C         0.153704        -0.105911         0.374786
 C         1.574643        -0.000453        -0.067985
 C         2.003591        -1.182855        -0.979499
 C         3.155349        -1.303071        -0.064401
 O         3.791259        -2.550173         0.070721
 C         3.766247         0.033227         0.399396
 O         3.541281         1.237765        -0.271998
 C         2.131740         1.409408        -0.444590
 C         2.535641        -0.488428         1.036582
 H        -0.084952         0.670429         1.020957
 H        -0.543227         0.074053        -0.521406
 H        -0.125368        -0.967526         0.921403
 H         1.337893        -1.962158        -0.791311
 H         2.254478        -0.992292        -2.093507
 H         4.523413        -2.453421         0.651616
 H         4.599660         0.179973         1.050516
 H         1.710172         2.092665         0.280290
 H         2.016571         1.780500        -1.515210
 H         2.273488        -0.573664         2.117694
