19
Iteration:  3604
 C        -0.005702        -0.090576         0.276919
 C         1.481357         0.019391         0.091025
 C         1.990960        -1.118532        -0.875760
 C         3.184033        -1.350567        -0.023774
 O         3.936188        -2.503982         0.117548
 C         3.802570         0.012720         0.326593
 O         3.590540         1.174000        -0.451400
 C         2.132284         1.397317        -0.389009
 C         2.607836        -0.391353         1.076962
 H        -0.457696         0.317505         1.297525
 H        -0.541109         0.356122        -0.561167
 H        -0.315157        -1.068296         0.396124
 H         1.301439        -1.995844        -0.769308
 H         2.274204        -0.920162        -1.899817
 H         3.431935        -3.284632         0.035038
 H         4.775392         0.005123         0.672355
 H         1.930378         2.041721         0.503456
 H         1.655415         1.709908        -1.326878
 H         2.345112        -0.421952         2.153320
