19
Iteration:  3928
 C         0.110926         0.212538         0.330900
 C         1.432840        -0.094805         0.007691
 C         1.965082        -1.257734        -0.873342
 C         3.256874        -1.317030        -0.067824
 O         4.056779        -2.543696        -0.054749
 C         3.718036         0.071212         0.406404
 O         3.458316         1.220783        -0.338648
 C         2.101863         1.307481        -0.474348
 C         2.548437        -0.552014         1.130406
 H         0.142504         0.983166         1.107101
 H        -0.372878         0.713909        -0.579781
 H        -0.605648        -0.584987         0.905413
 H         1.354888        -2.101175        -0.508834
 H         2.004819        -0.943190        -1.916271
 H         4.139425        -2.936551         0.877607
 H         4.733067         0.058360         0.940494
 H         1.644168         2.128682         0.193944
 H         1.826237         1.410915        -1.486140
 H         2.424370        -0.805957         2.187188
