19
Iteration:  2337charge 0 multiplicity 1
 C        -0.039347         0.135699         0.347309
 C         1.473793        -0.035866        -0.006291
 C         1.994414        -1.208657        -0.893095
 C         3.254645        -1.322283        -0.065828
 O         3.971108        -2.465464        -0.073870
 C         3.724730        -0.013176         0.458481
 O         3.516076         1.235790        -0.126869
 C         2.139566         1.261452        -0.634683
 C         2.546893        -0.558382         1.129890
 H        -0.218130         0.982004         0.958616
 H        -0.472557         0.479199        -0.712991
 H        -0.613119        -0.753651         0.794699
 H         1.471168        -2.143366        -0.757259
 H         2.136998        -0.974373        -2.074485
 H         4.720066        -2.543585         0.597886
 H         4.603962        -0.049336         0.991601
 H         1.747671         2.184411        -0.206103
 H         2.386338         1.208943        -1.702899
 H         2.440670        -0.626037         2.252362
