19
Iteration:   596
 C         0.123621         0.150429         0.242939
 C         1.508135        -0.050449        -0.009932
 C         1.996701        -1.138929        -0.972901
 C         3.270349        -1.269714        -0.090616
 O         3.840808        -2.577554         0.111816
 C         3.738230         0.046359         0.524981
 O         3.534274         1.219024        -0.265393
 C         2.141704         1.292039        -0.417334
 C         2.523387        -0.576055         1.045182
 H        -0.057067         0.848563         0.979920
 H        -0.490638         0.390855        -0.620419
 H        -0.314949        -0.759356         0.728856
 H         1.408672        -1.989245        -0.735832
 H         2.057010        -0.962798        -2.052963
 H         4.170917        -2.844704        -0.728363
 H         4.652081         0.137368         1.097677
 H         1.741025         2.110804         0.201646
 H         1.934109         1.561219        -1.431229
 H         2.409562        -1.005479         2.113946
