19
Iteration:  3751charge 0 multiplicity 1
 C         0.073667         0.168419         0.354509
 C         1.498647         0.018339         0.028017
 C         2.029437        -1.239040        -0.820397
 C         3.203761        -1.324846         0.054990
 O         4.140151        -2.412226        -0.148179
 C         3.710406        -0.010628         0.476664
 O         3.534154         1.062847        -0.365059
 C         2.104791         1.269318        -0.525210
 C         2.395630        -0.431666         1.186215
 H        -0.050464         0.792018         1.128565
 H        -0.404270         0.673191        -0.600135
 H        -0.562119        -0.780993         0.564387
 H         1.220830        -2.001580        -0.643575
 H         2.179806        -1.349366        -1.885616
 H         3.539266        -3.197824        -0.430957
 H         4.649941         0.128001         1.051998
 H         1.791855         2.160380         0.120579
 H         1.723177         1.474459        -1.428111
 H         2.078487        -0.511245         2.231805
