19
Iteration:  3641
 C         0.106503        -0.125456         0.477022
 C         1.571202         0.031063         0.007682
 C         2.170083        -0.928157        -1.030809
 C         3.187431        -1.341298        -0.023389
 O         3.847692        -2.579107         0.198314
 C         3.748665         0.092776         0.399058
 O         3.492393         1.092384        -0.568812
 C         2.042761         1.363417        -0.341506
 C         2.536438        -0.436778         1.048173
 H        -0.147990         0.466177         1.251366
 H        -0.477498         0.275349        -0.478888
 H        -0.147041        -1.250898         0.486810
 H         1.536049        -1.880236        -1.269036
 H         2.501121        -0.422687        -1.996231
 H         3.225342        -3.300208         0.403805
 H         4.834117         0.089730         0.810105
 H         2.043154         2.181605         0.421820
 H         1.670029         1.691784        -1.247415
 H         2.302583        -0.734238         2.065190
