19
Iteration:  3870
 C         0.096229        -0.119497         0.409435
 C         1.523580         0.095674         0.092332
 C         2.022928        -1.002431        -0.944648
 C         3.181901        -1.309948        -0.041669
 O         3.872676        -2.496128         0.046488
 C         3.798544        -0.011445         0.443408
 O         3.535264         1.104120        -0.497597
 C         2.112884         1.331433        -0.427707
 C         2.542964        -0.466853         1.083587
 H        -0.316974         0.548238         1.164765
 H        -0.518525         0.088900        -0.577829
 H        -0.071318        -1.243133         0.566207
 H         1.296221        -1.875944        -1.107253
 H         2.153323        -0.744693        -1.882961
 H         3.864025        -2.676505         0.956194
 H         4.746302        -0.040790         0.864816
 H         1.959621         2.277956         0.095739
 H         1.764093         1.512288        -1.475757
 H         2.387582        -0.581426         2.187675
