19
Iteration:  3811charge 0 multiplicity 1
 C         0.134303        -0.107265         0.390494
 C         1.541201         0.047619        -0.044625
 C         2.037527        -1.089542        -1.047789
 C         3.230658        -1.354020        -0.082377
 O         3.822915        -2.556461         0.205256
 C         3.798698         0.026514         0.360613
 O         3.486582         1.189122        -0.451565
 C         2.018017         1.431294        -0.339285
 C         2.650394        -0.531151         1.042798
 H        -0.147787         0.843484         1.165918
 H        -0.498026         0.071746        -0.456521
 H        -0.083542        -1.054796         0.851172
 H         1.339579        -1.878702        -0.915995
 H         2.402797        -0.618156        -2.064541
 H         3.159988        -2.797826         0.887926
 H         4.872841         0.122982         0.739800
 H         1.908335         2.003611         0.528472
 H         1.731825         1.978990        -1.317324
 H         2.570834        -0.684050         2.112623
