19
Iteration:   982
 C        -0.050974         0.200460         0.262150
 C         1.443830        -0.021887        -0.054981
 C         1.962232        -1.224411        -0.930242
 C         3.150916        -1.310134         0.027868
 O         3.981922        -2.410082        -0.135632
 C         3.769058        -0.054524         0.482235
 O         3.626833         1.051754        -0.318244
 C         2.215759         1.264101        -0.378461
 C         2.463655        -0.457558         1.169654
 H        -0.198990         0.776089         1.167168
 H        -0.596758         0.590530        -0.562048
 H        -0.560707        -0.801435         0.402008
 H         1.352781        -2.225159        -0.933863
 H         2.276195        -1.037007        -1.928254
 H         4.798901        -2.237462         0.459180
 H         4.572014        -0.121688         1.244222
 H         2.066120         1.985957         0.438844
 H         1.892047         1.829680        -1.369970
 H         2.342583        -0.588738         2.353341
