19
Iteration:  3363charge 0 multiplicity 1
 C        -0.057918         0.197516         0.294764
 C         1.459240        -0.022007         0.108783
 C         1.979155        -1.264061        -0.739064
 C         3.244639        -1.286063         0.019467
 O         4.068943        -2.405361        -0.200494
 C         3.727536         0.021201         0.542810
 O         3.568378         1.212057        -0.291718
 C         2.172384         1.129641        -0.596888
 C         2.518207        -0.498401         1.134543
 H        -0.212537         1.080594         0.970875
 H        -0.672288         0.455238        -0.578707
 H        -0.507664        -0.641022         0.751658
 H         1.378414        -2.239770        -0.603078
 H         2.007850        -0.986335        -1.800703
 H         3.521175        -3.157395        -0.137791
 H         4.717270        -0.003134         0.922760
 H         1.665395         2.142546        -0.418733
 H         2.155921         1.006677        -1.628341
 H         2.379434        -0.697385         2.182523
