19
Iteration:   914charge 0 multiplicity 1
 C         0.113216         0.002059         0.348777
 C         1.545112        -0.044737         0.013736
 C         2.185996        -1.036397        -1.056426
 C         3.263645        -1.304599         0.015143
 O         3.597849        -2.653606         0.055694
 C         3.803046         0.062359         0.457363
 O         3.535514         1.240142        -0.360976
 C         2.089187         1.285602        -0.358560
 C         2.544921        -0.468953         1.086009
 H        -0.076145         0.836336         0.902622
 H        -0.583175         0.041376        -0.581008
 H        -0.300963        -0.821465         0.872835
 H         1.746466        -1.924685        -1.409539
 H         2.564093        -0.414087        -1.930583
 H         4.544239        -2.835741        -0.065248
 H         4.695056         0.273022         1.009592
 H         1.600019         2.011240         0.323140
 H         1.872539         1.651277        -1.472279
 H         2.389909        -0.954446         2.122524
