19
Iteration:  2035charge 0 multiplicity 1
 C         0.093173        -0.218746         0.385057
 C         1.576234         0.006084         0.011804
 C         2.220709        -0.913369        -1.153708
 C         3.225639        -1.322269        -0.007704
 O         3.670430        -2.604697         0.282993
 C         3.783414         0.049587         0.378111
 O         3.483690         1.188374        -0.485628
 C         2.063720         1.419877        -0.318430
 C         2.561495        -0.476838         1.060714
 H        -0.157427         0.589192         1.220470
 H        -0.445589        -0.053702        -0.521614
 H        -0.092139        -1.140978         0.898323
 H         1.443199        -1.767083        -1.253546
 H         2.535906        -0.479199        -2.054000
 H         4.234870        -2.931739        -0.510508
 H         4.788678         0.055266         0.817664
 H         1.773393         2.185934         0.551384
 H         1.803070         1.687063        -1.300056
 H         2.485730        -0.820323         2.084340
