19
Iteration:    21charge 0 multiplicity 1
 C         0.043509         0.155120         0.364207
 C         1.472936        -0.038264        -0.044572
 C         2.055264        -1.147785        -0.940910
 C         3.353803        -1.316212        -0.026204
 O         3.833462        -2.653401         0.032622
 C         3.791353         0.103935         0.565131
 O         3.575559         1.285257        -0.285594
 C         2.085005         1.286716        -0.540831
 C         2.430829        -0.603379         1.038476
 H        -0.025291         1.080140         1.055204
 H        -0.583355         0.312005        -0.552495
 H        -0.306289        -0.614656         0.953206
 H         1.593655        -2.030340        -0.759984
 H         2.133228        -1.040835        -2.079510
 H         4.681592        -2.598687        -0.370035
 H         4.552574         0.206234         1.313302
 H         1.709064         2.130569         0.012570
 H         1.865293         1.372157        -1.552036
 H         2.178843        -1.015320         2.002840
