19
Iteration:  4501
 C        -0.050127         0.097636         0.301287
 C         1.533039        -0.118867         0.094567
 C         1.956982        -1.169717        -0.842624
 C         3.265301        -1.281919        -0.038895
 O         3.909966        -2.462942         0.066847
 C         3.850349         0.014109         0.420380
 O         3.519867         1.209554        -0.408655
 C         2.094816         1.257445        -0.436562
 C         2.614392        -0.535892         1.071289
 H        -0.166277         1.059189         0.934825
 H        -0.527149         0.379991        -0.595242
 H        -0.561525        -0.664539         0.727017
 H         1.446113        -2.003914        -0.602237
 H         1.764012        -0.832594        -1.903996
 H         4.186665        -2.722343        -0.846958
 H         4.872199        -0.064560         0.890863
 H         1.905003         2.091613         0.286990
 H         1.701867         1.542607        -1.464373
 H         2.466088        -0.692599         2.169482
