19
Iteration:    83
 C        -0.032577         0.117824         0.299572
 C         1.447343         0.036552        -0.010805
 C         1.889692        -1.226198        -0.927132
 C         3.233092        -1.272993        -0.049783
 O         3.987832        -2.465908         0.049463
 C         3.752021        -0.068488         0.493404
 O         3.651353         1.139578        -0.261911
 C         2.199077         1.364177        -0.522066
 C         2.454816        -0.524397         1.079595
 H        -0.342213         0.710564         1.235360
 H        -0.565226         0.450370        -0.638373
 H        -0.376890        -0.918014         0.577052
 H         1.352829        -2.182954        -0.549924
 H         1.940906        -1.166312        -2.053460
 H         4.838533        -2.471762        -0.338335
 H         4.626433        -0.061265         1.095989
 H         1.981303         2.191541         0.219103
 H         1.886691         1.593620        -1.621440
 H         2.249992        -0.845558         2.079555
