19
Iteration:  4625
 C         0.044026         0.024820         0.277925
 C         1.493865         0.045420         0.043141
 C         1.973860        -1.146433        -0.888246
 C         3.160199        -1.344742        -0.012840
 O         3.977162        -2.471421        -0.029017
 C         3.744812        -0.018374         0.360695
 O         3.534552         1.143878        -0.413443
 C         2.102110         1.378324        -0.377565
 C         2.550022        -0.507536         1.152247
 H        -0.150421         0.699513         1.080283
 H        -0.588661         0.234371        -0.649564
 H        -0.236966        -1.019099         0.745406
 H         1.350147        -2.142685        -0.824367
 H         2.303447        -1.075376        -1.924882
 H         4.330549        -2.768464         0.834777
 H         4.709175        -0.015382         0.801749
 H         1.992611         2.080404         0.516175
 H         1.965017         1.970584        -1.451872
 H         2.446226        -0.703972         2.234198
