19
Iteration:  4568charge 0 multiplicity 1
 C         0.100588        -0.133299         0.484819
 C         1.519685         0.021515         0.015143
 C         2.126340        -1.081315        -1.076129
 C         3.238236        -1.248580        -0.057548
 O         3.781889        -2.504784         0.173893
 C         3.836214         0.050267         0.450417
 O         3.494106         1.154604        -0.512175
 C         2.112471         1.388676        -0.378166
 C         2.544776        -0.517919         1.039486
 H        -0.074094         0.533721         1.388316
 H        -0.630138         0.221676        -0.227639
 H        -0.171710        -1.109997         0.764173
 H         1.545837        -1.948520        -0.881915
 H         2.443453        -1.035016        -2.156830
 H         3.236200        -3.173199        -0.226585
 H         4.812209         0.286253         0.944837
 H         1.862988         2.199706         0.451611
 H         1.779557         1.889140        -1.405858
 H         2.179874        -0.814918         1.979656
