19
Iteration:  4342charge 0 multiplicity 1
 C         0.047899         0.033705         0.431124
 C         1.501684         0.053104         0.015439
 C         1.991385        -1.133032        -0.898801
 C         3.219477        -1.335173        -0.052548
 O         3.973231        -2.506931        -0.003357
 C         3.720786        -0.024507         0.419487
 O         3.549688         1.063246        -0.467051
 C         2.072768         1.371123        -0.409313
 C         2.510281        -0.423303         1.112467
 H        -0.250169         0.875371         1.008834
 H        -0.624931         0.226881        -0.498358
 H        -0.153915        -1.011765         0.953425
 H         1.136869        -1.932207        -0.853274
 H         2.265008        -1.021084        -1.953126
 H         4.811118        -2.265383         0.469178
 H         4.678339        -0.128749         1.001021
 H         1.874503         2.273755         0.219150
 H         1.951235         1.551091        -1.407055
 H         2.310181        -0.780429         2.120996
