19
Iteration:   319charge 0 multiplicity 1
 C         0.019993        -0.054480         0.403121
 C         1.517865         0.021736         0.008992
 C         2.265406        -0.997853        -1.092520
 C         3.281257        -1.318316        -0.020486
 O         3.658286        -2.700937         0.120441
 C         3.812571         0.075504         0.523283
 O         3.495171         1.181375        -0.381141
 C         2.102385         1.422143        -0.448279
 C         2.509584        -0.512409         1.051009
 H        -0.176201         0.672241         1.169442
 H        -0.650465         0.037243        -0.391463
 H        -0.230023        -0.951837         1.090720
 H         1.760978        -1.993107        -1.220908
 H         2.614256        -0.652117        -2.087657
 H         4.487485        -2.685294        -0.456406
 H         4.706130         0.172107         1.082624
 H         1.791082         2.373458         0.178936
 H         1.911645         1.629694        -1.468816
 H         2.347930        -0.735472         2.132201
