19
Iteration:  4007charge 0 multiplicity 1
 C         0.057006        -0.085780         0.432082
 C         1.506573         0.016974         0.001671
 C         2.154217        -1.109647        -0.954771
 C         3.228928        -1.292212        -0.032359
 O         3.820417        -2.526752         0.181345
 C         3.788804         0.056487         0.380032
 O         3.483770         1.099410        -0.519037
 C         2.117467         1.398973        -0.382945
 C         2.576241        -0.444919         1.021937
 H        -0.006543         0.710732         1.310584
 H        -0.723178        -0.072396        -0.302153
 H        -0.182936        -1.047870         1.045022
 H         1.486534        -1.885210        -1.126436
 H         2.381120        -0.633412        -1.977320
 H         3.554694        -3.245653        -0.492865
 H         4.715322         0.148776         0.836075
 H         1.940914         2.056806         0.558749
 H         1.687150         1.967147        -1.134762
 H         2.268348        -0.446552         2.050968
