19
Iteration:  3722
 C        -0.071704         0.211458         0.251264
 C         1.451370        -0.036248         0.093542
 C         1.943619        -1.254248        -0.829738
 C         3.230449        -1.306869        -0.021764
 O         4.107203        -2.407848        -0.102102
 C         3.814426         0.000772         0.398754
 O         3.537569         1.168344        -0.294838
 C         2.173588         1.205831        -0.495662
 C         2.502160        -0.485205         1.223954
 H        -0.229765         1.026433         1.146912
 H        -0.430363         0.449350        -0.690450
 H        -0.607143        -0.610028         0.782299
 H         1.365028        -2.150956        -0.643278
 H         2.116251        -1.083475        -1.992714
 H         3.500439        -3.193911        -0.164280
 H         4.701116         0.116360         0.910359
 H         1.799655         2.133887        -0.097592
 H         1.754093         1.146414        -1.648148
 H         2.337486        -0.827855         2.261773
