19
Iteration:  4397charge 0 multiplicity 1
 C         0.187178        -0.075393         0.415249
 C         1.561830         0.017350        -0.043820
 C         2.060412        -1.095034        -0.950735
 C         3.228935        -1.355873        -0.011802
 O         3.748990        -2.729603         0.052518
 C         3.814651         0.063746         0.362235
 O         3.398648         1.237723        -0.481628
 C         2.048907         1.433230        -0.394040
 C         2.630288        -0.395303         1.150058
 H        -0.059644         0.432496         1.269322
 H        -0.417672         0.175229        -0.552324
 H        -0.243129        -1.128454         0.766830
 H         1.341390        -2.048879        -0.922241
 H         2.398754        -0.851714        -1.946981
 H         4.327675        -2.794225         0.901221
 H         4.865724         0.092950         0.769720
 H         1.781036         2.324288         0.376766
 H         1.868287         1.866580        -1.336051
 H         2.517017        -0.121189         2.159915
