19
Iteration:  4482
 C         0.001064         0.175683         0.317449
 C         1.443181        -0.039555         0.026065
 C         1.986005        -1.294693        -0.860302
 C         3.237797        -1.336589        -0.039314
 O         3.947469        -2.589498         0.003032
 C         3.790746         0.073989         0.357133
 O         3.512437         1.198723        -0.371156
 C         2.066686         1.320740        -0.366210
 C         2.619051        -0.438302         1.134482
 H        -0.206433         1.097983         0.947025
 H        -0.476200         0.504612        -0.622716
 H        -0.334810        -0.797561         0.829383
 H         1.339673        -2.230331        -0.638885
 H         2.207591        -1.266472        -1.928822
 H         4.709470        -2.542421        -0.560665
 H         4.793201         0.119758         0.904928
 H         1.763147         2.015458         0.351921
 H         1.752288         1.612804        -1.443552
 H         2.494293        -0.605265         2.177138
