19
Iteration:  1726charge 0 multiplicity 1
 C         0.057724         0.136364         0.295793
 C         1.560063         0.018898         0.014228
 C         1.902322        -1.261252        -0.869175
 C         3.177812        -1.357888        -0.094031
 O         4.039502        -2.436513         0.041982
 C         3.668842         0.010104         0.508126
 O         3.516986         1.230265        -0.184250
 C         2.199059         1.252654        -0.574705
 C         2.531822        -0.542185         1.079990
 H        -0.239756         0.892462         1.024492
 H        -0.489412         0.423464        -0.548640
 H        -0.379035        -0.858519         0.675842
 H         1.076190        -2.042456        -0.618178
 H         1.977795        -1.128240        -1.960828
 H         4.176061        -2.751106        -0.916287
 H         4.653913        -0.020688         0.921050
 H         1.761475         2.173505        -0.173500
 H         2.075494         1.458280        -1.691687
 H         2.455085        -0.729418         2.209738
