19
Iteration:  2395charge 0 multiplicity 1
 C         0.001058         0.093391         0.351258
 C         1.463164        -0.027656        -0.025826
 C         2.057412        -1.212789        -0.945457
 C         3.245592        -1.325845        -0.059316
 O         4.021256        -2.489009         0.084780
 C         3.724841         0.002722         0.449118
 O         3.571255         1.243629        -0.297409
 C         2.102901         1.285194        -0.450524
 C         2.500506        -0.494351         1.054845
 H        -0.080913         1.015444         1.121148
 H        -0.655994         0.265106        -0.432784
 H        -0.373174        -0.759928         0.852901
 H         1.341633        -2.138351        -0.858843
 H         2.229143        -0.972884        -1.990283
 H         3.568956        -3.183308        -0.379067
 H         4.742997        -0.019631         0.984668
 H         1.584227         2.178535        -0.018093
 H         1.953724         1.506867        -1.493716
 H         2.211275        -0.615687         2.087667
