19
Iteration:  3435
 C         0.030043        -0.045427         0.427951
 C         1.453339         0.008911        -0.058153
 C         2.081758        -1.103345        -1.069406
 C         3.208264        -1.320142        -0.063220
 O         3.932391        -2.469620         0.223343
 C         3.768465         0.019241         0.344468
 O         3.543544         1.090988        -0.506160
 C         2.129812         1.381498        -0.238016
 C         2.533419        -0.454166         0.994017
 H        -0.192463         0.613638         1.350470
 H        -0.722809         0.246824        -0.296803
 H        -0.229388        -1.156489         0.680795
 H         1.427608        -1.896108        -1.128229
 H         2.584204        -0.831737        -2.008164
 H         3.356731        -3.102674         0.602373
 H         4.699021         0.166180         0.799480
 H         2.121358         2.085403         0.568243
 H         1.724240         1.957127        -1.210875
 H         2.297509        -0.667793         2.064845
