19
Iteration:  1686charge 0 multiplicity 1
 C         0.002676        -0.077012         0.258081
 C         1.508963         0.024855         0.024739
 C         2.109909        -1.041530        -1.020211
 C         3.270722        -1.348809        -0.048798
 O         3.770939        -2.633262         0.213701
 C         3.810963         0.085749         0.392144
 O         3.477548         1.137535        -0.434424
 C         2.106741         1.431277        -0.300598
 C         2.627259        -0.469216         1.073928
 H        -0.328363         0.536299         1.214251
 H        -0.538332         0.336344        -0.645090
 H        -0.264410        -1.061914         0.520377
 H         1.442865        -1.958190        -1.181750
 H         2.455394        -0.685582        -1.976403
 H         4.392304        -2.983588        -0.395994
 H         4.643378         0.182110         0.970947
 H         1.956209         2.171403         0.532419
 H         1.587152         1.916511        -1.238417
 H         2.564062        -0.595270         2.139951
