19
Iteration:  3653
 C         0.096762        -0.100877         0.454840
 C         1.474728        -0.007263        -0.031540
 C         2.144333        -1.040993        -1.089677
 C         3.242163        -1.279445         0.021466
 O         3.858542        -2.563642         0.153165
 C         3.771080         0.061868         0.379466
 O         3.505584         1.126049        -0.505167
 C         2.133504         1.391500        -0.369178
 C         2.508418        -0.471295         1.039386
 H         0.039963         0.457974         1.329367
 H        -0.795497         0.157933        -0.230672
 H        -0.101682        -1.134924         0.969978
 H         1.369082        -1.850397        -1.242130
 H         2.487192        -0.626287        -2.109054
 H         3.075070        -3.041918         0.602998
 H         4.708689         0.195548         1.069731
 H         1.838909         2.028026         0.487585
 H         1.799844         1.886535        -1.281297
 H         2.442501        -0.519702         2.124023
