19
Iteration:  3584
 C         0.057176         0.066596         0.336455
 C         1.501938        -0.009329        -0.063866
 C         1.936353        -1.248072        -0.886473
 C         3.225682        -1.288757         0.000050
 O         4.030988        -2.467672        -0.001932
 C         3.745336         0.021098         0.446371
 O         3.550602         1.172328        -0.413984
 C         2.143202         1.353786        -0.417688
 C         2.510849        -0.471715         1.127580
 H        -0.214332         0.798301         1.130415
 H        -0.546156         0.358764        -0.637110
 H        -0.376502        -0.840038         0.743167
 H         1.326541        -2.178123        -0.496114
 H         1.871802        -1.230596        -1.994784
 H         3.485144        -3.236424         0.228232
 H         4.618768         0.033606         0.978215
 H         1.789345         2.168464         0.316646
 H         1.893217         1.604614        -1.391015
 H         2.548779        -0.635957         2.216939
