19
Iteration:   227
 C         0.007575         0.240581         0.262777
 C         1.491135        -0.072796         0.008766
 C         2.057488        -1.101609        -0.923040
 C         3.222421        -1.282648        -0.033637
 O         3.889754        -2.464718         0.064687
 C         3.789550        -0.030501         0.511208
 O         3.508082         1.111513        -0.338509
 C         2.094233         1.242929        -0.438798
 C         2.537761        -0.632844         1.105949
 H        -0.216448         0.852802         1.244299
 H        -0.483192         0.694539        -0.680138
 H        -0.494433        -0.603951         0.511830
 H         1.653896        -2.089600        -1.001999
 H         2.363356        -0.614810        -1.920128
 H         4.581957        -2.623342        -0.603727
 H         4.747209         0.077129         1.117908
 H         1.839605         2.160228         0.169267
 H         1.858214         1.568559        -1.580377
 H         2.514387        -0.939679         2.168482
