19
Iteration:   826
 C        -0.066814         0.178885         0.245048
 C         1.501705        -0.036900         0.030266
 C         2.079323        -1.075141        -0.951242
 C         3.326571        -1.332850        -0.036585
 O         3.886379        -2.634821         0.081668
 C         3.763082         0.068325         0.509032
 O         3.565169         1.140809        -0.406704
 C         2.069606         1.360238        -0.338379
 C         2.503049        -0.621984         1.060446
 H        -0.151022         0.705545         1.085299
 H        -0.414886         0.709360        -0.699057
 H        -0.591407        -0.720321         0.397464
 H         1.494959        -1.927828        -0.870755
 H         2.177086        -0.795181        -2.052445
 H         4.721060        -2.761708        -0.344908
 H         4.546491         0.215026         1.281019
 H         1.811973         2.026650         0.388129
 H         1.758260         1.824575        -1.360268
 H         2.441157        -0.673775         2.111662
