19
Iteration:   893
 C         0.101459        -0.144254         0.375534
 C         1.545919         0.094552        -0.067520
 C         2.170603        -0.967781        -1.082753
 C         3.268006        -1.294353        -0.085122
 O         3.637830        -2.643373         0.191149
 C         3.778671         0.058296         0.515683
 O         3.542627         1.141791        -0.344144
 C         2.128518         1.442586        -0.369900
 C         2.546921        -0.546915         1.007888
 H        -0.153394         0.545974         1.086603
 H        -0.646054        -0.089578        -0.460961
 H        -0.125501        -1.063253         0.859987
 H         1.430953        -1.756640        -0.963451
 H         2.332956        -0.812782        -2.175407
 H         4.337348        -2.890149        -0.527232
 H         4.704479         0.188321         1.036441
 H         1.962204         2.203392         0.329652
 H         1.755645         1.857706        -1.405048
 H         2.165760        -0.670673         2.103140
