19
Iteration:  4202charge 0 multiplicity 1
 C         0.017702        -0.113646         0.425602
 C         1.465161         0.037153         0.042450
 C         2.120168        -0.952666        -1.023572
 C         3.183787        -1.281887         0.018534
 O         3.802988        -2.574552         0.184403
 C         3.807101        -0.032524         0.365705
 O         3.506599         1.065284        -0.541751
 C         2.082668         1.388708        -0.390371
 C         2.632911        -0.439996         1.124323
 H        -0.199507         0.614895         1.133912
 H        -0.777114         0.077278        -0.266419
 H        -0.031483        -1.143362         0.884010
 H         1.413488        -1.751727        -1.491860
 H         2.472066        -0.345449        -1.768426
 H         4.562677        -2.557795        -0.512200
 H         4.722824         0.035460         0.938377
 H         1.808642         2.216442         0.312455
 H         1.829963         1.585419        -1.536828
 H         2.660968        -0.656058         2.230706
