19
Iteration:  2834charge 0 multiplicity 1
 C         0.082758        -0.083300         0.428212
 C         1.536986         0.023115        -0.036661
 C         2.052564        -0.976119        -1.054177
 C         3.149500        -1.372506        -0.025545
 O         3.948962        -2.510645         0.284525
 C         3.788207         0.016476         0.359648
 O         3.525259         1.131386        -0.546056
 C         2.071104         1.403548        -0.296333
 C         2.505162        -0.486386         1.032029
 H        -0.266981         0.656753         1.271210
 H        -0.526557        -0.005504        -0.364174
 H        -0.079631        -1.122654         0.770035
 H         1.223306        -1.743419        -1.265842
 H         2.501325        -0.682071        -1.916247
 H         3.814319        -3.369590        -0.248521
 H         4.795438        -0.045060         0.671531
 H         1.806945         2.031896         0.492766
 H         1.623615         1.792102        -1.217018
 H         2.425698        -0.544011         2.061983
