19
Iteration:  3026charge 0 multiplicity 1
 C        -0.001634        -0.156511         0.265054
 C         1.527098         0.031229         0.063989
 C         2.041639        -1.054899        -0.923726
 C         3.198459        -1.291029         0.035772
 O         3.920232        -2.482530         0.082072
 C         3.805080        -0.010142         0.419563
 O         3.467613         1.064323        -0.591287
 C         2.164335         1.426796        -0.283931
 C         2.569986        -0.362670         1.123992
 H        -0.338998         0.239958         1.178785
 H        -0.636740         0.319738        -0.677821
 H        -0.175113        -1.208174         0.490631
 H         1.357624        -1.866992        -1.028802
 H         2.479121        -0.682708        -1.964903
 H         3.384221        -3.212470         0.321724
 H         4.758605        -0.194139         0.881785
 H         2.068242         2.125289         0.592258
 H         1.790813         1.802425        -1.274002
 H         2.586549        -0.426735         2.169802
