19
Iteration:  1825
 C         0.004719        -0.105232         0.251334
 C         1.511944        -0.034060        -0.009574
 C         2.050536        -1.118822        -0.879954
 C         3.208098        -1.322771         0.042945
 O         3.820693        -2.533318         0.025418
 C         3.788696         0.005703         0.352747
 O         3.581519         1.192985        -0.438625
 C         2.134587         1.399138        -0.329747
 C         2.547989        -0.407507         1.089135
 H        -0.353206         0.476234         1.177444
 H        -0.522082         0.364964        -0.536487
 H        -0.459960        -1.141566         0.431391
 H         1.321270        -1.984459        -0.820558
 H         2.332290        -0.858854        -1.869826
 H         4.456226        -2.668772         0.757518
 H         4.669079         0.050838         0.864200
 H         1.963279         2.164683         0.509752
 H         1.906636         1.816115        -1.300802
 H         2.428585        -0.577185         2.143340
