19
Iteration:  4159charge 0 multiplicity 1
 C         0.043100         0.040096         0.342914
 C         1.484921        -0.001625         0.001242
 C         1.916802        -1.225303        -0.877954
 C         3.264033        -1.328309        -0.063868
 O         3.880704        -2.571166         0.050476
 C         3.808063         0.004328         0.344258
 O         3.542228         1.210309        -0.413538
 C         2.118530         1.429021        -0.401298
 C         2.565307        -0.461504         1.086415
 H        -0.240097         0.803401         1.116598
 H        -0.505087         0.276498        -0.535453
 H        -0.152532        -0.955786         0.804985
 H         1.412371        -2.170246        -0.398606
 H         1.915712        -1.249219        -1.988396
 H         4.837435        -2.507641         0.351015
 H         4.766066         0.196030         0.870747
 H         1.857841         1.941602         0.559876
 H         1.638059         1.911495        -1.407558
 H         2.429357        -0.758010         2.201769
