19
Iteration:  2703charge 0 multiplicity 1
 C        -0.019618         0.054702         0.384321
 C         1.501976         0.003187         0.021204
 C         2.073693        -1.119440        -0.974334
 C         3.212083        -1.385487         0.048394
 O         4.036687        -2.475227         0.097002
 C         3.719505         0.024688         0.373104
 O         3.505798         1.104705        -0.493732
 C         2.083042         1.344400        -0.393795
 C         2.568751        -0.479079         1.077368
 H         0.027131         0.976411         1.177726
 H        -0.706207         0.331579        -0.342951
 H        -0.423708        -0.822513         0.936826
 H         1.385911        -2.090712        -1.001970
 H         2.230226        -0.772993        -1.973944
 H         3.621412        -3.324232        -0.171389
 H         4.741988         0.152379         0.846591
 H         1.960552         2.083423         0.495712
 H         1.613591         1.762705        -1.267794
 H         2.341238        -0.490873         2.164719
