19
Iteration:  3480charge 0 multiplicity 1
 C         0.004931        -0.082252         0.274423
 C         1.532874         0.050848         0.127941
 C         2.100385        -1.097645        -0.957947
 C         3.178105        -1.315527         0.048810
 O         3.919380        -2.582769         0.084921
 C         3.824038         0.027062         0.302281
 O         3.532448         1.165484        -0.463644
 C         2.067940         1.382567        -0.390751
 C         2.591433        -0.395060         1.127630
 H        -0.394090         0.494737         1.245878
 H        -0.584366         0.354843        -0.454505
 H        -0.361133        -1.160201         0.348826
 H         1.319298        -1.835851        -0.782137
 H         2.277273        -0.815866        -2.012417
 H         3.406561        -3.306396         0.424186
 H         4.707056        -0.105977         0.824407
 H         1.802291         2.206010         0.283538
 H         1.657506         1.709801        -1.447204
 H         2.490946        -0.507239         2.193315
