19
Iteration:  4791charge 0 multiplicity 1
 C        -0.029484        -0.020339         0.322911
 C         1.489558        -0.029395         0.027002
 C         1.995378        -1.069677        -0.950866
 C         3.224765        -1.273119        -0.000649
 O         3.947409        -2.485481        -0.007672
 C         3.785415         0.024732         0.429439
 O         3.641183         1.111515        -0.395659
 C         2.111458         1.350852        -0.371264
 C         2.536363        -0.509325         1.066874
 H        -0.385014         0.683409         0.993476
 H        -0.676304        -0.038750        -0.561467
 H        -0.476376        -0.979856         0.731345
 H         1.172909        -1.906334        -0.944071
 H         2.145805        -0.791971        -2.002632
 H         3.794168        -2.993438         0.749700
 H         4.694299         0.130597         1.026413
 H         1.802431         2.088510         0.386879
 H         1.869556         1.842278        -1.341254
 H         2.428371        -0.541116         2.082616
