19
Iteration:  2566charge 0 multiplicity 1
 C        -0.047965         0.186959         0.297002
 C         1.498866         0.009187         0.085520
 C         1.928696        -1.304692        -0.768865
 C         3.162458        -1.374344         0.002288
 O         4.120774        -2.418795        -0.094283
 C         3.723894         0.006021         0.452254
 O         3.567620         1.106603        -0.354187
 C         2.131934         1.281144        -0.458810
 C         2.486172        -0.469055         1.158118
 H        -0.337739         0.875562         0.971068
 H        -0.326690         0.691997        -0.729020
 H        -0.696803        -0.704630         0.442513
 H         1.235114        -2.004515        -0.524739
 H         1.974782        -1.165832        -1.870665
 H         4.718966        -2.293747        -0.873001
 H         4.788688        -0.017119         0.872982
 H         1.832854         2.159309         0.082127
 H         2.035244         1.360114        -1.612437
 H         2.294758        -0.737889         2.170456
