19
Iteration:  2903
 C         0.042291         0.042992         0.382222
 C         1.512172         0.017537         0.050233
 C         2.038827        -1.199408        -0.856198
 C         3.194504        -1.341740         0.028617
 O         4.012080        -2.505040        -0.028780
 C         3.743606         0.023257         0.422688
 O         3.523968         1.219523        -0.371678
 C         2.056793         1.289024        -0.523407
 C         2.576547        -0.461032         1.108769
 H        -0.155033         0.862409         1.132773
 H        -0.491114         0.297551        -0.580722
 H        -0.499093        -0.907313         0.616379
 H         1.374673        -2.105485        -0.826167
 H         2.276838        -0.984400        -1.931874
 H         3.285834        -3.136495         0.182383
 H         4.788379        -0.046331         0.848084
 H         1.747434         2.235932        -0.107852
 H         1.842102         1.450457        -1.573625
 H         2.422745        -0.348457         2.249803
