19
Iteration:  1078charge 0 multiplicity 1
 C         0.126607        -0.135557         0.276817
 C         1.561339         0.125554        -0.030390
 C         2.055477        -0.985504        -1.101123
 C         3.150937        -1.399737        -0.068846
 O         3.854929        -2.585541         0.277059
 C         3.813214        -0.053897         0.441860
 O         3.544768         1.174436        -0.420604
 C         2.139458         1.535437        -0.248501
 C         2.451712        -0.523330         1.031293
 H        -0.106457         0.438729         1.145591
 H        -0.589964        -0.076941        -0.709004
 H        -0.050789        -1.156398         0.653129
 H         1.343611        -1.728032        -1.225651
 H         2.338875        -0.706382        -2.216719
 H         3.865415        -3.173561        -0.544497
 H         4.805585        -0.128347         0.929705
 H         1.794082         2.150602         0.591741
 H         1.774142         2.082225        -1.087965
 H         1.985815        -0.682386         2.110412
