19
Iteration:  2806charge 0 multiplicity 1
 C         0.056066        -0.007498         0.509932
 C         1.520895        -0.043621        -0.064280
 C         2.039537        -1.171079        -1.019963
 C         3.196003        -1.271687        -0.036298
 O         3.919076        -2.540970         0.112078
 C         3.765491         0.076546         0.430950
 O         3.555421         1.248248        -0.320405
 C         2.106830         1.336904        -0.523681
 C         2.504816        -0.472907         1.083397
 H        -0.141298         0.742208         1.232850
 H        -0.657013         0.183907        -0.418007
 H        -0.208612        -0.977703         1.001450
 H         1.397639        -2.038211        -0.876890
 H         2.426087        -1.131063        -2.129165
 H         3.454330        -3.177598        -0.469801
 H         4.803617         0.019448         0.802585
 H         1.609041         2.237274         0.041069
 H         1.921461         1.362972        -1.618839
 H         2.667852        -0.694916         2.169050
