19
Iteration:  4802
 C         0.055949        -0.004002         0.321962
 C         1.508800         0.008812        -0.009282
 C         1.959147        -1.177655        -0.929659
 C         3.162103        -1.354603        -0.046789
 O         3.968949        -2.479877        -0.015284
 C         3.772151         0.006291         0.411824
 O         3.582807         1.215126        -0.347405
 C         2.131458         1.351663        -0.361094
 C         2.498538        -0.448213         1.056526
 H        -0.166750         0.851751         0.864753
 H        -0.410263         0.145296        -0.650341
 H        -0.123005        -0.937628         0.905463
 H         1.511111        -2.204113        -0.694445
 H         2.075253        -0.938962        -2.003833
 H         3.732831        -3.066623         0.711634
 H         4.543021        -0.063141         1.165621
 H         1.890107         2.034738         0.465137
 H         1.851898         1.739341        -1.369121
 H         2.351917        -0.711382         2.033824
