19
Iteration:  2289charge 0 multiplicity 1
 C        -0.028758        -0.048494         0.159290
 C         1.495096         0.026093         0.048544
 C         2.098512        -1.121640        -0.981111
 C         3.177134        -1.327829         0.009853
 O         3.894740        -2.517020         0.121446
 C         3.799403        -0.013820         0.424356
 O         3.534020         1.151730        -0.407087
 C         2.111171         1.412981        -0.288813
 C         2.518066        -0.483649         1.126841
 H        -0.308132         0.427101         1.145154
 H        -0.664015         0.406585        -0.647152
 H        -0.264894        -1.076263         0.375613
 H         1.408332        -2.009117        -1.040951
 H         2.478741        -0.811039        -2.015168
 H         4.458095        -2.614336        -0.657458
 H         4.874832        -0.011246         0.923259
 H         1.971054         2.137381         0.525212
 H         1.837575         1.812272        -1.263186
 H         2.434103        -0.547209         2.199361
