19
Iteration:  1290
 C         0.071678        -0.065605         0.396634
 C         1.528757        -0.014349        -0.093459
 C         2.201035        -0.980647        -1.157413
 C         3.187887        -1.339921         0.034972
 O         3.737822        -2.602733         0.192855
 C         3.807645         0.007048         0.390104
 O         3.510408         1.150201        -0.387382
 C         2.106072         1.385049        -0.287614
 C         2.467378        -0.478716         1.016774
 H        -0.147741         0.680231         1.197188
 H        -0.532773         0.101543        -0.458930
 H        -0.170499        -1.079450         0.888220
 H         1.604939        -1.943462        -1.555048
 H         2.621253        -0.487064        -1.995481
 H         4.583420        -2.550946        -0.313280
 H         4.754883         0.049352         0.932062
 H         1.918955         1.894375         0.667319
 H         1.693933         2.059543        -1.087485
 H         2.383773        -0.449971         2.194676
