19
Iteration:  4135
 C        -0.017617         0.182599         0.396152
 C         1.474524        -0.078794         0.048231
 C         1.968783        -1.229881        -0.905334
 C         3.210490        -1.360452        -0.021170
 O         3.962646        -2.510572        -0.046819
 C         3.770069         0.022285         0.377397
 O         3.542999         1.199386        -0.367233
 C         2.105239         1.288308        -0.450326
 C         2.586091        -0.494094         1.113871
 H        -0.093310         0.992014         1.038351
 H        -0.547582         0.559203        -0.502587
 H        -0.439420        -0.735742         0.910684
 H         1.267842        -2.215045        -0.801459
 H         2.218189        -1.001645        -1.887095
 H         4.738801        -2.327478         0.437413
 H         4.659701         0.121204         0.969644
 H         1.665237         2.198655         0.101428
 H         1.831593         1.138587        -1.611150
 H         2.574604        -0.519921         2.214456
