19
Iteration:  1808
 C        -0.042346         0.061069         0.325264
 C         1.478762         0.034432         0.002701
 C         1.966193        -1.233197        -0.936020
 C         3.227517        -1.359103        -0.023639
 O         3.948036        -2.576139        -0.016291
 C         3.781402         0.028004         0.404202
 O         3.602954         1.259288        -0.287768
 C         2.122395         1.349563        -0.481124
 C         2.520093        -0.490030         1.124228
 H        -0.364793         0.647751         1.199796
 H        -0.654921         0.326120        -0.611713
 H        -0.290773        -0.927138         0.572897
 H         1.365751        -2.166171        -0.778984
 H         2.091089        -1.074608        -2.052817
 H         4.604197        -2.408390         0.669422
 H         4.793080        -0.030907         1.033121
 H         1.813177         2.109820         0.201990
 H         1.883804         1.426053        -1.621639
 H         2.434359        -0.326879         2.218134
