19
Iteration:  3432charge 0 multiplicity 1
 C         0.034597        -0.030442         0.451637
 C         1.447488         0.018462        -0.067839
 C         2.069832        -1.153653        -1.051379
 C         3.191042        -1.316450        -0.073496
 O         3.940046        -2.470538         0.216260
 C         3.765968         0.019198         0.360613
 O         3.524442         1.117298        -0.478170
 C         2.153323         1.412641        -0.274360
 C         2.545930        -0.464325         0.973875
 H        -0.157298         0.546642         1.225174
 H        -0.811776         0.181923        -0.336135
 H        -0.165967        -1.076614         0.658190
 H         1.452517        -2.017777        -1.193426
 H         2.507175        -0.893246        -1.980221
 H         3.399880        -3.209223         0.583202
 H         4.815926         0.054691         0.898457
 H         2.041414         2.070962         0.590717
 H         1.806482         1.987944        -1.176982
 H         2.322678        -0.620403         2.042821
