19
Iteration:  1316
 C         0.058267         0.008195         0.359541
 C         1.539897         0.049690        -0.020382
 C         2.078845        -1.064684        -0.960672
 C         3.275700        -1.313078        -0.008301
 O         3.795898        -2.629990         0.002320
 C         3.773792         0.053416         0.531822
 O         3.521291         1.205699        -0.306407
 C         2.131655         1.358355        -0.466217
 C         2.452349        -0.580035         1.057620
 H        -0.191450         0.702467         1.200476
 H        -0.539064         0.254948        -0.532247
 H        -0.089133        -0.940647         0.742250
 H         1.457657        -1.909134        -0.989281
 H         2.296107        -0.820308        -2.024239
 H         4.734808        -2.513362        -0.181815
 H         4.706169         0.108631         1.093481
 H         1.749347         2.171682         0.137806
 H         1.888197         1.497457        -1.599875
 H         2.317203        -0.713933         2.057040
