19
Iteration:  1039charge 0 multiplicity 1
 C        -0.009884        -0.020494         0.315310
 C         1.521758        -0.039869        -0.051364
 C         2.034460        -1.106418        -1.061166
 C         3.198967        -1.289771        -0.098183
 O         3.764031        -2.530317         0.149899
 C         3.849151        -0.029217         0.457016
 O         3.616974         1.265173        -0.216466
 C         2.132987         1.349705        -0.385102
 C         2.541151        -0.513817         1.046224
 H        -0.273528         0.796010         1.091998
 H        -0.584268         0.264674        -0.467061
 H        -0.371624        -1.004419         0.773866
 H         1.367677        -2.102276        -1.067645
 H         2.392944        -0.898235        -2.033309
 H         4.408386        -2.720550        -0.508616
 H         4.874118        -0.173804         0.810380
 H         1.860181         2.201576         0.271682
 H         1.967362         1.614650        -1.514042
 H         2.175082        -0.738723         2.001485
