19
Iteration:  3070charge 0 multiplicity 1
 C         0.100979        -0.076421         0.472043
 C         1.487337         0.024932        -0.041576
 C         2.074334        -1.085734        -1.094429
 C         3.229944        -1.324202        -0.141935
 O         3.899187        -2.502785         0.276481
 C         3.772865         0.027138         0.302023
 O         3.521443         1.142142        -0.366200
 C         2.062346         1.381350        -0.357157
 C         2.583428        -0.514147         0.979947
 H        -0.113734         0.761519         1.073134
 H        -0.727452         0.090610        -0.439115
 H        -0.124155        -0.886939         1.154340
 H         1.363894        -1.857420        -1.291083
 H         2.355965        -0.538466        -2.132465
 H         3.253326        -3.048666         0.683708
 H         4.805587         0.156457         0.710135
 H         1.858075         2.027560         0.542097
 H         1.725802         1.843905        -1.345324
 H         2.281881        -0.780384         2.007943
