19
Iteration:  2570
 C        -0.058608         0.196645         0.290253
 C         1.467701        -0.019888         0.074979
 C         1.940441        -1.258486        -0.799274
 C         3.185413        -1.353469        -0.005181
 O         4.096964        -2.436420        -0.071276
 C         3.738074         0.007677         0.422243
 O         3.563435         1.088925        -0.363270
 C         2.115494         1.294989        -0.467389
 C         2.519762        -0.490926         1.185677
 H        -0.442208         1.003076         1.115484
 H        -0.352855         0.670346        -0.667182
 H        -0.592584        -0.695814         0.499916
 H         1.309621        -2.265354        -0.561200
 H         2.050726        -1.170771        -1.891894
 H         4.778550        -2.171553        -0.751974
 H         4.664821         0.003738         0.857981
 H         1.815491         2.193606         0.224505
 H         2.160219         1.380728        -1.552796
 H         2.283145        -0.716771         2.224244
