19
Iteration:   859
 C        -0.001011        -0.141473         0.250919
 C         1.542723         0.080762        -0.007309
 C         1.994362        -1.050313        -1.089494
 C         3.014134        -1.427043         0.001273
 O         3.881798        -2.416317         0.227245
 C         3.747602        -0.067390         0.336166
 O         3.674773         1.162887        -0.329746
 C         2.182875         1.406865        -0.293721
 C         2.550139        -0.502453         1.116485
 H        -0.248606         0.380856         1.083706
 H        -0.570597         0.470107        -0.541208
 H        -0.281508        -1.157129         0.343794
 H         1.228632        -1.724163        -1.301676
 H         2.477513        -0.745479        -2.081164
 H         4.213563        -2.834604        -0.633324
 H         4.803876        -0.210495         0.548056
 H         1.974889         2.025413         0.529097
 H         1.932380         1.950517        -1.293881
 H         2.332600        -0.492398         2.184413
