19
Iteration:  3727
 C        -0.052636         0.239931         0.269022
 C         1.425944        -0.080267         0.067907
 C         1.979178        -1.273972        -0.804292
 C         3.246646        -1.307693        -0.002979
 O         4.100392        -2.405161        -0.134796
 C         3.771400        -0.014720         0.456815
 O         3.545393         1.171125        -0.340349
 C         2.190882         1.216248        -0.491198
 C         2.515039        -0.481249         1.221421
 H        -0.168704         0.919106         1.040635
 H        -0.612684         0.567586        -0.719236
 H        -0.597130        -0.598504         0.694269
 H         1.407549        -2.255107        -0.755028
 H         1.893613        -1.084068        -1.820620
 H         3.498685        -3.130913        -0.266148
 H         4.727786         0.200688         1.109607
 H         1.668055         2.149296        -0.083774
 H         1.796569         1.230165        -1.518003
 H         2.289155        -0.635376         2.276472
