19
Iteration:   192
 C         0.114340        -0.060238         0.397210
 C         1.527210         0.081388        -0.129654
 C         2.037287        -1.057040        -1.012407
 C         3.179629        -1.430551        -0.022388
 O         3.802067        -2.634517         0.156026
 C         3.749902        -0.000588         0.466364
 O         3.558095         1.231366        -0.269686
 C         2.137649         1.449564        -0.452814
 C         2.522382        -0.461806         1.028075
 H        -0.156116         0.731722         1.111119
 H        -0.622651         0.031030        -0.439627
 H         0.007002        -1.088990         0.704493
 H         1.412804        -1.987220        -1.206671
 H         2.378173        -0.763647        -2.009003
 H         4.565393        -2.739135        -0.475239
 H         4.624242        -0.088773         1.058305
 H         1.784319         2.221191         0.231262
 H         1.900645         1.660059        -1.582162
 H         2.255654        -0.579697         2.098310
