19
Iteration:   689
 C        -0.064543         0.016076         0.290244
 C         1.486791         0.019727         0.037303
 C         2.110645        -1.020095        -1.027885
 C         3.217461        -1.285753         0.012054
 O         3.828227        -2.617081         0.108127
 C         3.823118        -0.018403         0.415479
 O         3.607044         1.102541        -0.452244
 C         2.125172         1.360654        -0.329601
 C         2.503087        -0.475013         1.049249
 H        -0.604964         0.512176         1.217668
 H        -0.514847         0.391147        -0.626893
 H        -0.600034        -0.943741         0.538004
 H         1.491843        -1.984931        -1.195898
 H         2.427964        -0.501790        -1.954987
 H         4.736907        -2.433772         0.518920
 H         4.687039        -0.058303         1.053689
 H         1.896661         1.922124         0.625940
 H         1.862315         1.898987        -1.179054
 H         2.368756        -0.548397         2.096531
