19
Iteration:  3922charge 0 multiplicity 1
 C         0.070366         0.219480         0.344997
 C         1.500456        -0.105570         0.017929
 C         1.989173        -1.256739        -0.892127
 C         3.240115        -1.341826        -0.027838
 O         4.071460        -2.553949        -0.068880
 C         3.712476         0.044694         0.397229
 O         3.484211         1.217028        -0.325322
 C         2.041065         1.318115        -0.473201
 C         2.513145        -0.514360         1.132175
 H         0.243595         1.137059         1.000486
 H        -0.492460         0.747846        -0.387666
 H        -0.492697        -0.519347         0.706487
 H         1.547424        -2.225125        -0.587474
 H         1.883120        -1.231734        -2.067599
 H         4.106203        -2.817453         0.831346
 H         4.642599         0.093200         0.858684
 H         1.779770         2.120036         0.260891
 H         1.744652         1.635326        -1.548781
 H         2.486194        -0.724509         2.199110
