19
Iteration:  3311charge 0 multiplicity 1
 C        -0.040602         0.121667         0.401624
 C         1.430825        -0.010185         0.070454
 C         1.945248        -1.182021        -0.953464
 C         3.146011        -1.307822        -0.012936
 O         4.133321        -2.410267         0.072145
 C         3.759065        -0.005441         0.401689
 O         3.595461         1.124084        -0.445239
 C         2.109021         1.290108        -0.431051
 C         2.543597        -0.537856         1.064835
 H        -0.178874         0.821010         1.130781
 H        -0.614052         0.528998        -0.541468
 H        -0.563256        -0.766837         0.687813
 H         1.409633        -2.019057        -0.799990
 H         2.163918        -1.091451        -1.994925
 H         3.654132        -3.243537         0.157736
 H         4.679703         0.000889         0.994562
 H         1.930166         2.080123         0.218108
 H         1.933952         1.687624        -1.531003
 H         2.354211        -0.643339         2.108487
