19
Iteration:  4164
 C         0.075118         0.002605         0.337208
 C         1.527976         0.006111        -0.033565
 C         1.899928        -1.225291        -0.864837
 C         3.227703        -1.354555        -0.080575
 O         3.855858        -2.571180         0.075485
 C         3.798154         0.044459         0.335702
 O         3.537827         1.210086        -0.457406
 C         2.120896         1.443064        -0.343277
 C         2.565587        -0.471774         1.118246
 H        -0.216680         0.695590         1.231273
 H        -0.509144         0.062452        -0.643382
 H        -0.152769        -0.967542         0.755294
 H         1.362215        -2.085589        -0.594572
 H         1.984915        -1.129823        -2.029581
 H         4.798002        -2.420696         0.277919
 H         4.646640         0.153771         1.063842
 H         1.911823         2.196465         0.449366
 H         1.790478         1.804342        -1.227410
 H         2.633827        -0.673099         2.148372
