19
Iteration:  3983
 C         0.126240        -0.074538         0.449446
 C         1.517637         0.075703         0.021857
 C         1.997969        -1.116269        -0.981869
 C         3.114407        -1.332288         0.016126
 O         3.953505        -2.517446         0.083883
 C         3.771497         0.015064         0.414749
 O         3.587660         1.184241        -0.437436
 C         2.092312         1.371965        -0.494467
 C         2.529685        -0.435289         1.076742
 H        -0.124046         0.502713         1.370364
 H        -0.549262        -0.043843        -0.428800
 H        -0.030965        -1.245356         0.742636
 H         1.234632        -1.963185        -0.863282
 H         2.053207        -0.993938        -2.065183
 H         3.521423        -3.373298        -0.061623
 H         4.691278         0.046984         0.987787
 H         1.861537         2.198192         0.210420
 H         1.754024         1.778291        -1.413518
 H         2.278375        -0.425082         2.100670
