19
Iteration:  4978
 C         0.042238        -0.077558         0.418401
 C         1.504490         0.015289        -0.056958
 C         2.077133        -1.138281        -0.956805
 C         3.173626        -1.369120         0.003736
 O         3.947689        -2.501540        -0.000588
 C         3.731179        -0.025996         0.444195
 O         3.579176         1.207831        -0.421525
 C         2.131565         1.471152        -0.429582
 C         2.499620        -0.462096         1.105471
 H        -0.166526         0.769925         1.206252
 H        -0.691348        -0.080941        -0.394951
 H        -0.103241        -1.075295         1.053501
 H         1.468219        -2.021065        -1.015118
 H         2.438041        -0.946256        -1.951645
 H         3.416384        -3.159054         0.385771
 H         4.569840         0.033413         1.212737
 H         1.930128         2.414284         0.140038
 H         1.837720         1.653447        -1.460278
 H         2.097575        -0.650086         2.183132
