19
Iteration:  1476
 C         0.094688        -0.221730         0.291919
 C         1.591195         0.016661         0.048208
 C         2.227261        -1.000382        -1.138162
 C         3.181445        -1.286830        -0.035746
 O         3.608875        -2.607988         0.287063
 C         3.850788         0.066057         0.373408
 O         3.509156         1.226313        -0.494947
 C         2.075611         1.393435        -0.215322
 C         2.610838        -0.440071         1.055232
 H        -0.401825         0.403425         1.135356
 H        -0.387781         0.061319        -0.598339
 H        -0.172152        -1.246887         0.713469
 H         1.514894        -1.878602        -1.429972
 H         2.696544        -0.545947        -1.964667
 H         3.568573        -3.158012        -0.530209
 H         4.817936        -0.022262         0.855182
 H         1.878770         2.236914         0.626090
 H         1.708393         1.827494        -1.090110
 H         2.438894        -0.698191         2.016668
