19
Iteration:  1088charge 0 multiplicity 1
 C         0.079688        -0.092237         0.282532
 C         1.537405         0.074408        -0.001449
 C         2.179633        -0.958581        -1.127505
 C         3.155367        -1.356179         0.007432
 O         3.823520        -2.600132         0.236801
 C         3.768974        -0.069922         0.421671
 O         3.522571         1.135700        -0.441857
 C         2.077952         1.468573        -0.265833
 C         2.523961        -0.501883         1.076385
 H        -0.391173         0.578116         1.035481
 H        -0.596949         0.220261        -0.661354
 H        -0.083036        -1.125672         0.569274
 H         1.482829        -1.713435        -1.308923
 H         2.471898        -0.345056        -2.093807
 H         3.879723        -3.094644        -0.646067
 H         4.691227        -0.020753         1.014341
 H         2.062637         2.166656         0.571052
 H         1.757083         1.879055        -1.161460
 H         2.448169        -0.693016         2.206848
