19
Iteration:  4474charge 0 multiplicity 1
 C         0.042940         0.171786         0.318333
 C         1.534973        -0.019404         0.055245
 C         2.005446        -1.287900        -0.830580
 C         3.217851        -1.394771        -0.012393
 O         3.964987        -2.582341        -0.004198
 C         3.730832         0.019594         0.376036
 O         3.474849         1.230253        -0.401298
 C         2.071388         1.400037        -0.414510
 C         2.577513        -0.513490         1.099185
 H        -0.059705         0.918577         1.047092
 H        -0.755453         0.306210        -0.508586
 H        -0.393116        -0.840882         0.783558
 H         1.201610        -2.154888        -0.701174
 H         2.177091        -1.024874        -1.864823
 H         4.902781        -2.456072        -0.252711
 H         4.712491        -0.026578         0.803416
 H         2.014958         2.350007         0.274423
 H         1.722431         1.715470        -1.381276
 H         2.403790        -0.474619         2.146716
