19
Iteration:  2558
 C         0.001152         0.169187         0.254082
 C         1.496109         0.007520         0.095954
 C         1.874573        -1.297374        -0.758717
 C         3.192308        -1.376467         0.025089
 O         4.137007        -2.407933        -0.103144
 C         3.722633        -0.041715         0.497775
 O         3.564884         1.159487        -0.338883
 C         2.170777         1.256321        -0.502463
 C         2.481112        -0.466258         1.144471
 H        -0.179601         0.920551         1.105739
 H        -0.452990         0.607531        -0.720283
 H        -0.560276        -0.721998         0.368071
 H         1.042623        -1.992355        -0.433361
 H         1.882578        -1.218901        -1.864135
 H         4.487775        -2.314190        -1.056573
 H         4.676885        -0.158240         0.943679
 H         1.790665         2.251593        -0.036544
 H         1.650248         1.402896        -1.501385
 H         2.316294        -0.624472         2.156656
