19
Iteration:   175charge 0 multiplicity 1
 C         0.143510        -0.199084         0.328239
 C         1.594776         0.051804        -0.093722
 C         2.032968        -1.128865        -1.070361
 C         3.113044        -1.269004        -0.069348
 O         3.702185        -2.538893         0.228143
 C         3.788364         0.013527         0.394890
 O         3.619888         1.215331        -0.311786
 C         2.177197         1.461048        -0.356840
 C         2.444632        -0.482428         1.019725
 H        -0.119046         0.531285         1.196192
 H        -0.701131        -0.150233        -0.405674
 H         0.128391        -1.186622         0.849590
 H         1.272920        -1.795809        -0.844434
 H         2.216391        -1.025025        -2.226251
 H         4.488865        -2.679160        -0.417589
 H         4.825630        -0.018853         0.922852
 H         2.043336         2.067967         0.602173
 H         2.075809         1.940259        -1.288245
 H         2.211956        -0.672046         2.077135
