19
Iteration:  2073
 C         0.195598        -0.341786         0.375265
 C         1.537664         0.045160        -0.046925
 C         2.112962        -1.017031        -1.045447
 C         3.171127        -1.277644        -0.029501
 O         3.667613        -2.653021         0.260198
 C         3.812279         0.077611         0.359695
 O         3.563876         1.283662        -0.443946
 C         2.130890         1.467382        -0.308669
 C         2.539607        -0.418984         1.052687
 H        -0.161909         0.211449         1.154809
 H        -0.621490        -0.081340        -0.454038
 H         0.028128        -1.457207         0.486484
 H         1.457387        -1.816187        -1.019750
 H         2.372355        -0.821938        -2.152002
 H         3.656123        -3.033743        -0.629748
 H         4.778606         0.064974         0.989444
 H         1.878936         2.197060         0.382097
 H         1.721121         1.952872        -1.282902
 H         2.321386        -0.522352         2.143260
