19
Iteration:  1134charge 0 multiplicity 1
 C         0.068533         0.061909         0.242299
 C         1.544126         0.048603         0.025984
 C         2.046288        -1.167277        -0.894156
 C         3.229624        -1.333521        -0.078779
 O         3.837299        -2.591454         0.028816
 C         3.731023         0.050665         0.476976
 O         3.526446         1.169355        -0.292105
 C         2.134079         1.376119        -0.399533
 C         2.526852        -0.521645         1.073584
 H        -0.275252         0.668375         1.020765
 H        -0.485116         0.570985        -0.606186
 H        -0.357781        -0.966995         0.485723
 H         1.300661        -1.939516        -0.726849
 H         2.168237        -1.074890        -2.020557
 H         4.776617        -2.602583        -0.317500
 H         4.646765         0.081324         1.047769
 H         1.812404         2.155924         0.266611
 H         1.963547         1.617380        -1.434960
 H         2.398007        -0.742676         2.101675
