19
Iteration:   887
 C         0.079631        -0.192663         0.369446
 C         1.534875         0.122017        -0.043084
 C         2.109744        -0.954061        -1.098286
 C         3.247712        -1.340193        -0.069402
 O         3.709911        -2.629470         0.219858
 C         3.762407         0.027943         0.450549
 O         3.580740         1.158157        -0.338802
 C         2.185548         1.444079        -0.354388
 C         2.484962        -0.485643         0.999908
 H        -0.220323         0.658845         1.133677
 H        -0.709854        -0.095219        -0.385457
 H        -0.126182        -1.273394         0.684571
 H         1.377489        -1.830944        -1.018439
 H         2.287257        -0.757676        -2.156325
 H         4.205929        -2.970980        -0.546508
 H         4.732490         0.170215         0.957719
 H         1.888894         2.239453         0.447921
 H         2.003164         1.851280        -1.305920
 H         2.187656        -0.713632         1.997519
