19
Iteration:  3377charge 0 multiplicity 1
 C        -0.069088         0.128574         0.366848
 C         1.437994        -0.077120         0.068754
 C         1.966225        -1.156395        -0.859982
 C         3.240047        -1.271592        -0.011696
 O         4.012924        -2.417886        -0.116031
 C         3.806205         0.020787         0.448956
 O         3.561338         1.207381        -0.231643
 C         2.146851         1.224023        -0.682404
 C         2.578106        -0.536144         1.259176
 H        -0.179785         0.975091         0.893312
 H        -0.538473         0.272597        -0.732652
 H        -0.631527        -0.689535         0.811202
 H         1.442139        -2.000168        -0.670527
 H         2.059931        -1.115082        -1.897480
 H         3.410347        -3.240107        -0.021948
 H         4.848004        -0.038587         1.049026
 H         1.788455         2.207998        -0.455910
 H         2.032293         0.971647        -1.828871
 H         2.450683        -0.757919         2.302523
