19
Iteration:  3926
 C         0.109586         0.213262         0.335554
 C         1.443879        -0.100244         0.011313
 C         1.976183        -1.253127        -0.889669
 C         3.250148        -1.324441        -0.056804
 O         4.063410        -2.550262        -0.060293
 C         3.712867         0.067206         0.400740
 O         3.464559         1.218939        -0.333285
 C         2.082890         1.319915        -0.470822
 C         2.536360        -0.539115         1.133515
 H         0.187689         1.010346         1.028784
 H        -0.423540         0.770614        -0.542400
 H        -0.589330        -0.577159         0.868125
 H         1.406792        -2.179290        -0.484823
 H         1.956673        -1.034204        -1.888482
 H         4.134137        -2.910472         0.879587
 H         4.711458         0.066945         0.920654
 H         1.721583         2.062915         0.173404
 H         1.796597         1.478853        -1.508451
 H         2.448437        -0.796409         2.230251
