19
Iteration:   959
 C         0.042371         0.070743         0.236300
 C         1.542272         0.039578         0.044500
 C         1.901355        -1.130974        -0.895479
 C         3.151872        -1.347492        -0.051581
 O         4.008463        -2.487963        -0.033898
 C         3.697703        -0.028937         0.449016
 O         3.620612         1.101790        -0.366770
 C         2.238315         1.406567        -0.338822
 C         2.392319        -0.538004         1.083216
 H        -0.216300         0.683118         1.040724
 H        -0.533233         0.361271        -0.673297
 H        -0.364478        -0.933331         0.431117
 H         1.211184        -1.961762        -0.562927
 H         1.956170        -1.129098        -1.992061
 H         4.644679        -2.298623         0.636045
 H         4.680838        -0.214799         0.908134
 H         2.090058         2.184717         0.445073
 H         1.951845         1.916005        -1.383128
 H         2.061098        -0.893609         2.184927
