19
Iteration:  3111
 C         0.042321         0.072925         0.409295
 C         1.518429        -0.047188         0.019159
 C         1.980896        -1.158423        -0.842303
 C         3.204699        -1.339919         0.033958
 O         4.018702        -2.543995        -0.144687
 C         3.744055         0.066540         0.445052
 O         3.511967         1.213955        -0.271087
 C         2.113484         1.317968        -0.598468
 C         2.540012        -0.442255         1.139869
 H        -0.268530         0.801319         1.152933
 H        -0.507937         0.272037        -0.529915
 H        -0.275420        -0.948426         0.674201
 H         1.366244        -2.060299        -0.740155
 H         2.129009        -1.050966        -1.957329
 H         3.609942        -3.208764         0.502356
 H         4.724697        -0.047823         0.955820
 H         1.683320         2.227996        -0.182018
 H         2.113098         1.381535        -1.743547
 H         2.352102        -0.521935         2.195781
