19
Iteration:   954charge 0 multiplicity 1
 C         0.049320         0.059707         0.259011
 C         1.508022         0.079677         0.031974
 C         1.932128        -1.133720        -0.898832
 C         3.159864        -1.350142        -0.048944
 O         3.995130        -2.546267        -0.019685
 C         3.724716        -0.047702         0.392651
 O         3.572654         1.116694        -0.332381
 C         2.224913         1.435150        -0.369569
 C         2.423807        -0.532160         1.117703
 H        -0.267877         0.890305         0.995856
 H        -0.527009         0.335612        -0.695577
 H        -0.211053        -1.005092         0.340373
 H         1.213984        -1.913740        -0.685988
 H         2.077820        -0.992634        -2.020812
 H         4.687488        -2.328767         0.662277
 H         4.613053        -0.128493         1.025097
 H         2.140401         2.229436         0.432439
 H         1.875560         1.789934        -1.289285
 H         2.178382        -0.942414         2.013015
