19
Iteration:  4023charge 0 multiplicity 1
 C        -0.004663        -0.038756         0.443497
 C         1.487680        -0.028430         0.038537
 C         2.097759        -0.998395        -1.080631
 C         3.240876        -1.304741         0.009878
 O         3.833304        -2.590781         0.261946
 C         3.852663         0.050831         0.298165
 O         3.521012         1.151566        -0.579144
 C         2.062852         1.337398        -0.287578
 C         2.595508        -0.468712         1.083413
 H        -0.371526         0.685720         1.138442
 H        -0.518680         0.039798        -0.555725
 H        -0.372315        -0.941404         0.903502
 H         1.427407        -1.957844        -1.212978
 H         2.494388        -0.555608        -1.970625
 H         3.840431        -2.932632        -0.678927
 H         4.808535         0.187838         0.926109
 H         1.867519         2.049973         0.582419
 H         1.606187         1.689291        -1.346846
 H         2.694377        -0.635336         2.184892
