19
Iteration:  1372
 C         0.038312         0.277727         0.246962
 C         1.499940        -0.052236        -0.012676
 C         1.899177        -1.277660        -0.758277
 C         3.211884        -1.355327        -0.030401
 O         4.087609        -2.456572        -0.157519
 C         3.709658        -0.057863         0.554846
 O         3.544208         1.167615        -0.179937
 C         2.120794         1.314955        -0.530556
 C         2.441622        -0.606969         1.091128
 H         0.215177         1.092204         0.906963
 H        -0.435606         0.710882        -0.725055
 H        -0.675576        -0.476940         0.503228
 H         1.278710        -2.044877        -0.420936
 H         1.965998        -1.218463        -1.897673
 H         4.969224        -1.980049        -0.391937
 H         4.586784        -0.009930         1.286866
 H         1.685459         2.258317        -0.083320
 H         2.011248         1.404655        -1.733686
 H         2.370974        -0.837991         2.183131
