19
Iteration:  1014charge 0 multiplicity 1
 C         0.099057         0.187575         0.269535
 C         1.563133         0.021153         0.082716
 C         2.036942        -1.022626        -0.956246
 C         3.272907        -1.366039        -0.018547
 O         3.898475        -2.675062        -0.025889
 C         3.731952        -0.026038         0.537736
 O         3.469582         1.207037        -0.289653
 C         2.066309         1.338979        -0.520916
 C         2.477601        -0.628098         1.129593
 H        -0.167550         0.790174         1.058117
 H        -0.401302         0.532495        -0.678317
 H        -0.341578        -0.759576         0.643344
 H         1.421068        -1.952724        -1.069998
 H         2.390037        -0.748650        -1.938421
 H         4.815493        -2.538023        -0.209238
 H         4.469120         0.189224         1.334774
 H         1.726227         2.323591        -0.055166
 H         1.877157         1.422806        -1.700420
 H         2.479713        -0.644479         2.337780
