19
Iteration:  1694charge 0 multiplicity 1
 C        -0.069909        -0.024033         0.260571
 C         1.527236         0.006411         0.011427
 C         2.118475        -1.087313        -0.948023
 C         3.230333        -1.304814        -0.044951
 O         3.794485        -2.577986         0.185644
 C         3.833797         0.038080         0.369064
 O         3.535886         1.217905        -0.366797
 C         2.102364         1.330221        -0.345724
 C         2.606638        -0.488356         1.052704
 H        -0.308244         0.617465         1.127585
 H        -0.584609         0.265401        -0.586600
 H        -0.400807        -1.090740         0.415527
 H         1.364887        -1.988635        -0.953079
 H         2.350345        -0.740637        -1.961003
 H         4.218388        -2.888211        -0.597357
 H         4.781740         0.090560         0.890440
 H         1.928445         1.959870         0.474776
 H         1.670693         1.672512        -1.399196
 H         2.641831        -0.582562         2.189617
