19
Iteration:  2416charge 0 multiplicity 1
 C         0.033381        -0.029877         0.240591
 C         1.526135        -0.022304         0.051695
 C         2.050639        -1.067672        -0.949543
 C         3.227686        -1.341271         0.074968
 O         3.876913        -2.575005         0.123966
 C         3.805247         0.029013         0.404505
 O         3.484551         1.188952        -0.422825
 C         2.072975         1.337675        -0.397995
 C         2.605118        -0.459772         1.153693
 H        -0.349231         0.664005         1.138643
 H        -0.446998         0.365912        -0.683801
 H        -0.396740        -0.999878         0.363217
 H         1.390684        -2.015188        -1.139088
 H         2.322355        -0.583376        -1.938937
 H         4.030709        -2.902524        -0.823598
 H         4.825263         0.227166         0.906413
 H         1.900946         2.313223         0.150297
 H         1.686002         1.582754        -1.383317
 H         2.536832        -0.634011         2.223841
