19
Iteration:  1032
 C         0.025427         0.031799         0.326647
 C         1.517450        -0.002796        -0.049095
 C         2.075183        -1.074987        -0.999458
 C         3.211142        -1.336777        -0.071487
 O         3.782681        -2.588385         0.106075
 C         3.796464         0.048855         0.470545
 O         3.560330         1.232115        -0.214172
 C         2.134042         1.316108        -0.431991
 C         2.558192        -0.549371         1.059496
 H        -0.187012         0.793722         1.137940
 H        -0.528679         0.262799        -0.686613
 H        -0.454663        -0.859997         0.687984
 H         1.410143        -1.887815        -1.068145
 H         2.211062        -0.717321        -2.101190
 H         4.560209        -2.616460        -0.454080
 H         4.796066        -0.089637         0.851137
 H         1.824777         2.239465         0.072861
 H         1.930625         1.477952        -1.440018
 H         2.269303        -0.902936         2.041914
