19
Iteration:  4708charge 0 multiplicity 1
 C        -0.002735        -0.029154         0.367498
 C         1.485127        -0.001937        -0.025231
 C         1.945441        -1.146615        -0.981062
 C         3.255601        -1.330198        -0.122195
 O         3.914232        -2.468349         0.165427
 C         3.800664         0.028059         0.441071
 O         3.565527         1.248367        -0.305356
 C         2.165044         1.364590        -0.421541
 C         2.558017        -0.551985         1.016721
 H        -0.142033         0.685852         1.302827
 H        -0.702324         0.322841        -0.389219
 H        -0.131577        -0.996807         0.693088
 H         1.471704        -2.006074        -0.731148
 H         1.935606        -1.023967        -2.091541
 H         3.751317        -3.142530        -0.592236
 H         4.772082        -0.109468         0.887721
 H         1.726330         2.129608         0.206573
 H         1.951175         1.563904        -1.462928
 H         2.348499        -0.694463         2.074219
