19
Iteration:   551charge 0 multiplicity 1
 C         0.009549        -0.061463         0.282572
 C         1.553212         0.128333         0.020175
 C         2.014903        -0.995576        -1.008884
 C         3.131416        -1.352285        -0.014967
 O         3.916751        -2.521993         0.135598
 C         3.693661        -0.091058         0.423683
 O         3.596161         1.041049        -0.461467
 C         2.197497         1.441850        -0.351178
 C         2.459724        -0.514368         1.106921
 H        -0.374195         0.270106         1.190206
 H        -0.537953         0.352024        -0.508199
 H        -0.196242        -1.217106         0.409478
 H         1.229716        -1.757705        -1.184251
 H         2.352138        -0.513051        -1.904219
 H         4.817846        -2.305186         0.345273
 H         4.614279        -0.154730         0.941039
 H         2.096399         2.138384         0.465866
 H         1.960777         1.993450        -1.278346
 H         2.245791        -0.588336         2.190630
