19
Iteration:  2599charge 0 multiplicity 1
 C         0.054183         0.095701         0.403045
 C         1.526481        -0.052486         0.058447
 C         2.038337        -1.101842        -0.969630
 C         3.240224        -1.341700        -0.017942
 O         3.927907        -2.570462         0.064893
 C         3.745199         0.054684         0.384769
 O         3.499685         1.149430        -0.466775
 C         2.055980         1.304030        -0.365427
 C         2.531189        -0.508637         1.073344
 H        -0.088794         0.870140         1.037911
 H        -0.482015         0.425093        -0.600181
 H        -0.441062        -0.791556         0.830796
 H         1.337184        -1.854563        -1.008352
 H         2.355839        -0.845998        -2.016955
 H         4.727482        -2.310186         0.492986
 H         4.726797         0.125002         0.936169
 H         1.747828         2.067486         0.287964
 H         1.840227         1.554702        -1.454092
 H         2.270831        -0.713958         2.077485
