19
Iteration:  3445
 C         0.014916        -0.083491         0.392089
 C         1.529238         0.000305         0.019441
 C         2.124503        -0.966186        -1.087981
 C         3.221472        -1.309705        -0.008330
 O         3.921418        -2.482150         0.230273
 C         3.800478         0.007322         0.322179
 O         3.530373         1.057497        -0.592641
 C         2.081982         1.356450        -0.257693
 C         2.491551        -0.475073         1.059786
 H        -0.042178         0.484029         1.297408
 H        -0.587872         0.399587        -0.389845
 H        -0.374634        -1.121672         0.670982
 H         1.448004        -1.715595        -1.186523
 H         2.313761        -0.584626        -2.086671
 H         3.266245        -3.027531         0.683788
 H         4.718088         0.063739         0.888224
 H         2.037367         1.934033         0.636498
 H         1.609180         1.898933        -1.190076
 H         2.357787        -0.699008         2.147460
