19
Iteration:  4558
 C         0.086749        -0.097055         0.511401
 C         1.489266         0.004837        -0.027585
 C         2.133748        -1.131755        -1.079613
 C         3.188013        -1.292954        -0.000342
 O         3.850273        -2.514748         0.154132
 C         3.750286         0.057638         0.405601
 O         3.563971         1.159633        -0.470285
 C         2.145791         1.373731        -0.401698
 C         2.508890        -0.396937         1.044974
 H         0.048665         0.442824         1.479065
 H        -0.689582         0.037770        -0.241336
 H        -0.065412        -1.192702         0.795556
 H         1.387175        -1.972234        -1.087677
 H         2.253476        -0.805590        -2.115116
 H         3.359191        -3.025532        -0.529026
 H         4.641517        -0.040657         1.032083
 H         1.944712         1.971464         0.508860
 H         1.596916         1.865019        -1.333001
 H         2.405090        -0.607891         2.070413
