19
Iteration:  1401charge 0 multiplicity 1
 C        -0.057902         0.244981         0.356999
 C         1.459131        -0.100865         0.023606
 C         2.086468        -1.143567        -1.017332
 C         3.207574        -1.333449        -0.014073
 O         4.006433        -2.525459        -0.053753
 C         3.749449        -0.024350         0.512659
 O         3.575998         1.125083        -0.261728
 C         2.103192         1.218793        -0.487275
 C         2.437773        -0.485548         1.136506
 H        -0.031302         1.147173         1.104615
 H        -0.555660         0.542951        -0.516394
 H        -0.685824        -0.541902         0.772628
 H         1.499664        -2.178691        -1.111255
 H         2.375974        -0.724066        -1.940553
 H         4.880883        -2.225666        -0.314090
 H         4.587734         0.060130         1.186993
 H         1.728974         2.109660         0.035488
 H         1.891137         1.437705        -1.485848
 H         2.298573        -0.550148         2.142207
