19
Iteration:   378
 C        -0.086085        -0.041205         0.212574
 C         1.484990         0.061836         0.063680
 C         1.990886        -1.029721        -0.961176
 C         3.223176        -1.289054        -0.106488
 O         3.868593        -2.486176         0.251069
 C         3.802367        -0.050086         0.376532
 O         3.622151         1.130040        -0.362697
 C         2.144633         1.390073        -0.311758
 C         2.553503        -0.558651         1.003458
 H        -0.432233         0.512809         1.067766
 H        -0.658572         0.378660        -0.679180
 H        -0.302276        -1.088842         0.287213
 H         1.395419        -1.950436        -0.842089
 H         2.130963        -0.743435        -2.011069
 H         4.532195        -2.744376        -0.427241
 H         4.751618        -0.187151         0.926787
 H         2.018377         2.169919         0.481140
 H         1.977125         1.809168        -1.297948
 H         2.510189        -1.058753         1.924120
