19
Iteration:  1802
 C        -0.007163         0.114480         0.363831
 C         1.500307         0.006539        -0.030634
 C         1.954212        -1.228828        -0.934410
 C         3.239166        -1.351405        -0.053605
 O         3.977396        -2.571115        -0.019583
 C         3.745310        -0.005118         0.430389
 O         3.565745         1.253013        -0.251620
 C         2.121467         1.313479        -0.523501
 C         2.524617        -0.463569         1.131484
 H        -0.454197         0.764892         1.127404
 H        -0.534607         0.343396        -0.563844
 H        -0.380360        -0.958145         0.643851
 H         1.324098        -2.085309        -0.713689
 H         2.099577        -1.096851        -2.000002
 H         4.689172        -2.419375         0.592579
 H         4.640835         0.041064         0.925759
 H         1.765990         2.281476         0.007975
 H         2.021227         1.404767        -1.552889
 H         2.343019        -0.618937         2.223573
