19
Iteration:  1615charge 0 multiplicity 1
 C         0.075866        -0.036945         0.314197
 C         1.551037         0.045139        -0.024713
 C         2.004016        -1.127109        -0.924257
 C         3.221396        -1.304418        -0.094667
 O         3.837417        -2.573135         0.128910
 C         3.720182         0.041450         0.423123
 O         3.572037         1.252835        -0.280443
 C         2.162218         1.374705        -0.449895
 C         2.489820        -0.562906         1.062214
 H        -0.131499         0.530113         1.156390
 H        -0.641700         0.145915        -0.466521
 H         0.048620        -1.069058         0.764795
 H         1.298962        -1.917292        -0.838180
 H         2.103042        -0.769340        -2.018109
 H         4.463443        -2.735899        -0.553601
 H         4.635686         0.036221         1.121407
 H         1.717805         2.248599         0.039460
 H         1.981037         1.517780        -1.559628
 H         2.414314        -0.823474         2.069242
