19
Iteration:  2961
 C         0.091711         0.235137         0.475279
 C         1.449891        -0.050121        -0.106988
 C         1.876026        -1.337066        -0.845121
 C         3.143442        -1.345738        -0.067789
 O         4.187608        -2.347866         0.032040
 C         3.697775        -0.045053         0.407994
 O         3.484429         1.243609        -0.173768
 C         2.181849         1.231832        -0.601612
 C         2.512812        -0.527085         1.007944
 H         0.160517         1.137189         1.022893
 H        -0.704891         0.488320        -0.420804
 H        -0.188162        -0.502827         1.208897
 H         1.332574        -2.217213        -0.696026
 H         1.980517        -1.101483        -2.025991
 H         3.630922        -3.159081        -0.015810
 H         4.653461        -0.153531         0.853231
 H         1.623427         2.097362        -0.186713
 H         2.200588         1.162068        -1.705381
 H         2.262287        -0.822986         1.957794
