19
Iteration:  1019charge 0 multiplicity 1
 C         0.094234         0.137499         0.263448
 C         1.548863         0.016897         0.090896
 C         2.045339        -1.021613        -0.984667
 C         3.245157        -1.353440        -0.019145
 O         3.860651        -2.671386         0.017192
 C         3.726471         0.006831         0.517457
 O         3.478428         1.204360        -0.261952
 C         2.099165         1.345698        -0.528529
 C         2.518987        -0.615983         1.103741
 H        -0.153202         0.975463         1.089519
 H        -0.488611         0.506733        -0.585666
 H        -0.188069        -0.887775         0.610341
 H         1.391668        -1.961489        -1.006583
 H         2.329930        -0.626595        -1.998617
 H         4.803508        -2.580956        -0.298006
 H         4.497500         0.255996         1.230874
 H         1.606572         2.156571         0.011643
 H         2.003499         1.430384        -1.587180
 H         2.564335        -0.800193         2.093852
