19
Iteration:    96
 C        -0.038833         0.098084         0.272183
 C         1.484177        -0.030252        -0.048935
 C         2.060570        -1.166522        -0.866255
 C         3.211901        -1.324560        -0.029912
 O         3.904967        -2.509734         0.057394
 C         3.780063         0.005037         0.499619
 O         3.602468         1.135014        -0.368993
 C         2.159670         1.285112        -0.360127
 C         2.459176        -0.465935         1.057343
 H        -0.093871         0.892215         1.155682
 H        -0.703643         0.614890        -0.528310
 H        -0.497366        -0.808077         0.430188
 H         1.414773        -2.011566        -0.723464
 H         2.134665        -1.023891        -2.046756
 H         4.647613        -2.255393        -0.603003
 H         4.678746        -0.121079         1.029957
 H         1.723808         2.121860         0.262823
 H         2.078885         1.637599        -1.408870
 H         2.235506        -0.674192         2.091097
