19
Iteration:  1497charge 0 multiplicity 1
 C         0.137719        -0.075199         0.293302
 C         1.561774         0.049714        -0.021608
 C         2.131443        -0.909510        -1.028823
 C         3.266174        -1.346315         0.014771
 O         3.779666        -2.670022         0.204149
 C         3.790727         0.055041         0.398054
 O         3.459231         1.171832        -0.377650
 C         2.045913         1.378249        -0.417310
 C         2.564205        -0.537363         1.092349
 H        -0.194727         0.600435         1.162948
 H        -0.455701         0.159937        -0.573757
 H        -0.051753        -1.124653         0.783026
 H         1.392596        -1.775036        -1.192694
 H         2.405503        -0.444962        -1.943685
 H         3.492724        -3.231177        -0.574399
 H         4.706036         0.236496         0.944618
 H         1.815476         2.156510         0.364407
 H         1.737987         1.876031        -1.291002
 H         2.490788        -0.667260         2.089748
