19
Iteration:  3760charge 0 multiplicity 1
 C         0.046865         0.144971         0.348220
 C         1.506241         0.010588         0.026494
 C         2.015113        -1.218845        -0.872167
 C         3.200031        -1.387750         0.061749
 O         4.124975        -2.388713        -0.091841
 C         3.689567        -0.068692         0.471684
 O         3.499560         1.088490        -0.410529
 C         2.151305         1.325139        -0.470434
 C         2.441746        -0.411005         1.171377
 H        -0.068781         0.755325         1.174664
 H        -0.694786         0.612791        -0.371701
 H        -0.266610        -0.873558         0.525955
 H         1.306648        -2.084638        -0.667475
 H         2.103714        -0.998487        -1.885169
 H         3.618840        -3.252679        -0.313590
 H         4.705709         0.033295         1.019843
 H         1.813622         2.291080         0.065273
 H         1.941565         1.383070        -1.572009
 H         2.085144        -0.598195         2.173538
