19
Iteration:  3703
 C         0.049157         0.110293         0.306026
 C         1.497704        -0.007840         0.066434
 C         1.923490        -1.148836        -0.854043
 C         3.152012        -1.382077        -0.063450
 O         4.069330        -2.397168         0.019622
 C         3.746498        -0.065386         0.421901
 O         3.541344         1.211667        -0.261750
 C         2.100288         1.319031        -0.535261
 C         2.631134        -0.568425         1.081344
 H        -0.353665         0.968917         0.955452
 H        -0.378290         0.157924        -0.708678
 H        -0.389993        -0.703285         0.781043
 H         1.227717        -1.997268        -0.781380
 H         1.798466        -0.868957        -1.864262
 H         3.620699        -3.196224         0.294167
 H         4.771676        -0.222436         0.771084
 H         1.527840         2.195245        -0.151334
 H         1.876235         1.363626        -1.696477
 H         2.475582        -0.610371         2.160091
