19
Iteration:  3490charge 0 multiplicity 1
 C         0.015558        -0.052770         0.314024
 C         1.481772        -0.006659         0.004811
 C         1.986985        -1.153731        -0.861805
 C         3.205381        -1.342806         0.019932
 O         3.931202        -2.533707         0.044355
 C         3.837119        -0.034079         0.381577
 O         3.562602         1.258933        -0.425840
 C         2.101913         1.365689        -0.418445
 C         2.560364        -0.386014         1.105426
 H        -0.287195         0.506310         1.215991
 H        -0.452701         0.309748        -0.564740
 H        -0.276872        -1.137495         0.499411
 H         1.510482        -2.082266        -0.791972
 H         2.173907        -1.000968        -1.927103
 H         3.300078        -3.244444         0.307579
 H         4.783911         0.004991         0.793921
 H         1.892959         2.115521         0.306760
 H         1.838160         1.713845        -1.509284
 H         2.490401        -0.264298         2.180664
