19
Iteration:  4977charge 0 multiplicity 1
 C         0.033896        -0.070938         0.426967
 C         1.497635         0.022911        -0.065153
 C         2.094712        -1.136947        -0.949123
 C         3.172077        -1.370218         0.004941
 O         3.950751        -2.508241         0.000485
 C         3.741171        -0.034204         0.442901
 O         3.579542         1.216546        -0.425560
 C         2.121432         1.469646        -0.428800
 C         2.497283        -0.464966         1.109260
 H        -0.140206         0.778110         1.176974
 H        -0.682521        -0.091607        -0.430413
 H        -0.099772        -1.103382         1.074349
 H         1.457845        -2.042501        -1.067022
 H         2.412450        -0.980552        -1.977157
 H         3.380230        -3.163195         0.407409
 H         4.575007         0.017848         1.204835
 H         1.901305         2.424771         0.148757
 H         1.846058         1.697466        -1.424522
 H         2.111591        -0.653112         2.143864
