19
Iteration:  3058
 C         0.057112        -0.099810         0.423638
 C         1.526787         0.021164        -0.010769
 C         2.054839        -1.024339        -1.138447
 C         3.160736        -1.397609        -0.087559
 O         3.943383        -2.492030         0.310574
 C         3.828180        -0.058985         0.369279
 O         3.468024         1.193917        -0.525899
 C         2.112223         1.442719        -0.252309
 C         2.545666        -0.480685         0.982530
 H        -0.108944         0.644272         1.136027
 H        -0.806074        -0.141619        -0.420363
 H        -0.017752        -1.101140         0.851615
 H         1.263177        -1.738832        -1.303662
 H         2.466962        -0.609917        -2.172032
 H         3.302236        -3.192776         0.645953
 H         4.827905        -0.183674         0.788339
 H         1.977755         2.178125         0.595066
 H         1.679254         1.975509        -1.174528
 H         2.547214        -0.691358         2.015424
