19
Iteration:  3644
 C         0.108274        -0.121770         0.472482
 C         1.534906         0.020762        -0.009182
 C         2.172935        -0.953318        -1.061073
 C         3.197326        -1.337550        -0.005225
 O         3.857206        -2.580740         0.186111
 C         3.742114         0.114597         0.385263
 O         3.497641         1.093245        -0.554674
 C         2.071885         1.365174        -0.328032
 C         2.517038        -0.437973         1.043954
 H        -0.098743         0.551995         1.363447
 H        -0.454026         0.212890        -0.380071
 H        -0.115025        -1.249254         0.565862
 H         1.536952        -1.819036        -1.150135
 H         2.492059        -0.402806        -1.997673
 H         3.108297        -3.236927         0.464809
 H         4.779931         0.078283         0.852381
 H         2.005628         2.096166         0.485630
 H         1.711679         1.692212        -1.416490
 H         2.360485        -0.727643         2.082381
