19
Iteration:   808charge 0 multiplicity 1
 C        -0.056924         0.202461         0.291356
 C         1.435559        -0.018066        -0.012382
 C         2.163974        -1.175196        -0.982475
 C         3.289495        -1.321939         0.028879
 O         3.862245        -2.647563        -0.037455
 C         3.782949         0.044167         0.509974
 O         3.513086         1.177944        -0.316077
 C         2.118265         1.272037        -0.409503
 C         2.494574        -0.485814         1.099438
 H        -0.169835         1.126065         1.043042
 H        -0.520655         0.656888        -0.558551
 H        -0.591742        -0.646834         0.763638
 H         1.762953        -2.248870        -1.079974
 H         2.470975        -0.846343        -1.951974
 H         4.787512        -2.472832         0.096190
 H         4.726951         0.193395         0.976642
 H         1.802391         2.164077         0.309798
 H         1.834840         1.476707        -1.424428
 H         2.287964        -0.913968         2.134225
