19
Iteration:  3706charge 0 multiplicity 1
 C         0.033329         0.142330         0.318175
 C         1.494667        -0.010894         0.093322
 C         1.940799        -1.152090        -0.842730
 C         3.160563        -1.355318        -0.045689
 O         4.079427        -2.394416        -0.001026
 C         3.744907        -0.063511         0.422986
 O         3.546240         1.200438        -0.260580
 C         2.081417         1.290090        -0.553493
 C         2.620741        -0.554967         1.079694
 H        -0.323220         0.956491         0.810512
 H        -0.448793         0.218324        -0.769480
 H        -0.486624        -0.783501         0.704717
 H         1.200503        -2.013536        -0.762553
 H         1.835102        -0.965214        -1.907373
 H         3.608390        -3.278480         0.229720
 H         4.844890        -0.269859         0.738927
 H         1.538251         2.213045        -0.158168
 H         1.973560         1.360062        -1.550888
 H         2.480523        -0.678883         2.145849
