19
Iteration:  1419
 C         0.030865         0.044120         0.348193
 C         1.507241         0.032405        -0.032727
 C         2.060949        -1.036369        -0.989784
 C         3.173156        -1.352855         0.007431
 O         3.890927        -2.513894         0.085663
 C         3.738875        -0.032018         0.451412
 O         3.543536         1.138010        -0.355014
 C         2.145748         1.354608        -0.437688
 C         2.496150        -0.592609         1.096946
 H        -0.017412         0.775374         1.123709
 H        -0.706618         0.291932        -0.466564
 H        -0.252461        -1.027871         0.645970
 H         1.395446        -1.844700        -1.165852
 H         2.452215        -0.618880        -1.962694
 H         4.807522        -2.304767        -0.034749
 H         4.695692        -0.135614         0.901508
 H         1.769090         2.248928         0.244218
 H         1.954510         1.620906        -1.509067
 H         2.247340        -0.808897         2.167132
