19
Iteration:  4880charge 0 multiplicity 1
 C         0.016851         0.030244         0.362062
 C         1.543928         0.039014        -0.019644
 C         2.037713        -1.184291        -0.881451
 C         3.185012        -1.340334         0.071692
 O         4.029466        -2.444829        -0.077046
 C         3.742064         0.000492         0.456412
 O         3.546597         1.114087        -0.417075
 C         2.173695         1.337357        -0.428587
 C         2.403384        -0.434455         1.145581
 H        -0.038298         0.527004         1.349377
 H        -0.647916         0.494323        -0.319391
 H        -0.293067        -0.993534         0.418919
 H         1.319453        -1.947435        -1.017410
 H         2.309331        -1.047194        -1.896444
 H         3.448878        -3.172877        -0.112491
 H         4.672578        -0.012175         1.042808
 H         1.771097         2.151004         0.156368
 H         2.026604         1.637120        -1.504586
 H         2.128803        -0.522740         2.268941
