19
Iteration:  2732charge 0 multiplicity 1
 C        -0.012228         0.261131         0.311714
 C         1.464201        -0.041753         0.076240
 C         1.908796        -1.272965        -0.848103
 C         3.239567        -1.366992        -0.071483
 O         4.192473        -2.298361        -0.060400
 C         3.666463        -0.010765         0.480467
 O         3.543000         1.076399        -0.408865
 C         2.127344         1.262794        -0.447342
 C         2.520968        -0.564301         1.128028
 H        -0.019639         1.045212         1.008876
 H        -0.578017         0.663522        -0.618940
 H        -0.534866        -0.502819         0.810978
 H         1.303827        -2.102128        -0.547959
 H         1.807194        -1.137006        -1.964644
 H         3.918540        -3.157656         0.199960
 H         4.662423        -0.065786         0.955437
 H         1.872022         2.021658         0.261494
 H         1.705509         1.473484        -1.469350
 H         2.264810        -0.696343         2.267777
