19
Iteration:   218
 C        -0.023739         0.160360         0.346321
 C         1.452663        -0.036520         0.013766
 C         2.103895        -1.023940        -1.037130
 C         3.247408        -1.317206         0.041783
 O         3.857510        -2.550861         0.088707
 C         3.775714        -0.003678         0.440896
 O         3.533186         1.171550        -0.314272
 C         2.135197         1.251552        -0.475627
 C         2.527384        -0.616597         1.145792
 H        -0.185724         1.032368         1.131481
 H        -0.509084         0.572277        -0.600245
 H        -0.540447        -0.769101         0.537602
 H         1.756515        -2.008745        -1.190624
 H         2.335175        -0.577724        -2.111718
 H         4.536643        -2.548624        -0.618702
 H         4.758662        -0.016319         1.003087
 H         1.730773         2.207446         0.071949
 H         1.889547         1.198819        -1.564212
 H         2.487049        -0.800138         2.208415
