19
Iteration:  2326
 C        -0.004967         0.147421         0.255697
 C         1.514255        -0.020724         0.006926
 C         2.045494        -1.226502        -0.837697
 C         3.295237        -1.297683        -0.067825
 O         3.901002        -2.570314        -0.088794
 C         3.771489         0.015791         0.522612
 O         3.499741         1.252621        -0.171160
 C         2.110445         1.275151        -0.544469
 C         2.534180        -0.507151         1.119556
 H        -0.167310         0.839319         1.028541
 H        -0.679570         0.442626        -0.687712
 H        -0.439639        -0.887789         0.539389
 H         1.423444        -2.089970        -0.670768
 H         2.124751        -1.076105        -2.032245
 H         4.818481        -2.356506         0.265343
 H         4.706232        -0.004048         0.939878
 H         1.603100         2.217901        -0.326471
 H         1.785244         1.227409        -1.603238
 H         2.357571        -0.670973         2.210435
