19
Iteration:   735charge 0 multiplicity 1
 C         0.033153         0.023368         0.262204
 C         1.522031        -0.033942         0.011921
 C         2.061248        -1.142676        -0.987971
 C         3.254625        -1.299368        -0.002207
 O         3.757048        -2.605931         0.010858
 C         3.800660         0.054121         0.413197
 O         3.570155         1.236732        -0.322828
 C         2.156081         1.328792        -0.387445
 C         2.527139        -0.432939         1.081000
 H        -0.227920         0.556861         1.217339
 H        -0.552919         0.179100        -0.658931
 H        -0.180432        -1.016461         0.744453
 H         1.391851        -2.095467        -1.033408
 H         2.300045        -0.802797        -2.009495
 H         4.180057        -2.756055         0.916610
 H         4.715996        -0.012714         0.982474
 H         1.822495         2.111272         0.320518
 H         1.885220         1.636054        -1.404501
 H         2.307039        -0.663662         2.177605
