19
Iteration:  3889charge 0 multiplicity 1
 C        -0.018556         0.019451         0.376790
 C         1.493878        -0.016060         0.037828
 C         1.946696        -1.118380        -0.926480
 C         3.172288        -1.328402         0.011527
 O         4.022395        -2.486959        -0.014647
 C         3.740257         0.004139         0.389943
 O         3.581590         1.119888        -0.423189
 C         2.150647         1.358604        -0.463344
 C         2.509403        -0.473417         1.127605
 H        -0.050948         0.639705         1.373650
 H        -0.603855         0.361478        -0.471859
 H        -0.413172        -0.840106         0.767848
 H         1.386314        -2.068089        -0.868596
 H         2.152262        -0.836459        -2.039263
 H         4.155224        -2.724013         0.896167
 H         4.716550         0.005831         0.827917
 H         1.899283         2.197616         0.159800
 H         1.854624         1.672912        -1.521280
 H         2.445332        -0.693800         2.181838
