19
Iteration:   717charge 0 multiplicity 1
 C         0.175616         0.028519         0.237724
 C         1.638280         0.011086         0.027638
 C         2.164096        -1.041914        -0.996147
 C         3.148018        -1.398243         0.058896
 O         3.783957        -2.678196         0.033334
 C         3.770219         0.032670         0.460395
 O         3.423263         1.197063        -0.420509
 C         2.001492         1.417867        -0.371116
 C         2.583196        -0.551978         1.119326
 H        -0.066983         0.763959         0.940802
 H        -0.369127         0.531174        -0.608068
 H        -0.461151        -0.754951         0.557618
 H         1.405030        -1.693320        -1.088245
 H         2.586778        -0.680084        -1.949874
 H         4.418606        -2.721510         0.853775
 H         4.813153         0.085563         0.915446
 H         1.646147         2.108781         0.377004
 H         1.686099         1.762230        -1.471686
 H         2.386232        -0.496738         2.179682
