19
Iteration:  4897charge 0 multiplicity 1
 C        -0.015306        -0.004225         0.336630
 C         1.496935        -0.023136         0.013031
 C         2.008541        -1.119673        -0.912853
 C         3.179716        -1.398690        -0.007877
 O         4.062694        -2.500084        -0.033656
 C         3.727131        -0.043096         0.472077
 O         3.594316         1.116839        -0.431237
 C         2.102698         1.429551        -0.396589
 C         2.469505        -0.346040         1.123577
 H        -0.200361         0.626469         1.206730
 H        -0.495118         0.550057        -0.585222
 H        -0.265016        -1.196903         0.290769
 H         1.312455        -2.080902        -0.831066
 H         2.262992        -0.908091        -2.020940
 H         3.586282        -3.264713         0.287468
 H         4.643090        -0.098214         1.018135
 H         2.153131         2.063171         0.557640
 H         1.622128         1.854798        -1.267044
 H         2.382939        -0.154843         2.195928
