19
Iteration:  4076charge 0 multiplicity 1
 C         0.000742         0.008772         0.439231
 C         1.453544        -0.052100        -0.012911
 C         1.940911        -1.225535        -0.826757
 C         3.212008        -1.335358        -0.054887
 O         3.919774        -2.520496         0.012505
 C         3.727454         0.021758         0.405519
 O         3.640315         1.187869        -0.427850
 C         2.182410         1.354523        -0.461345
 C         2.518076        -0.397460         1.085795
 H        -0.107582         0.709376         1.359527
 H        -0.625649         0.216949        -0.453593
 H        -0.482767        -0.849931         0.778307
 H         1.336946        -2.074365        -0.730488
 H         2.153513        -1.093127        -1.945902
 H         4.881297        -2.313475        -0.003550
 H         4.843811         0.013286         0.715412
 H         1.770409         2.111778         0.292754
 H         1.860576         1.789817        -1.433625
 H         2.124869        -0.491937         2.122814
