19
Iteration:  2692
 C        -0.005234        -0.054795         0.421898
 C         1.526974        -0.021562        -0.006684
 C         2.072055        -1.042708        -0.981999
 C         3.188808        -1.348344        -0.041191
 O         3.959492        -2.551572         0.169419
 C         3.783756         0.022199         0.356656
 O         3.510011         1.169773        -0.544310
 C         2.084302         1.361484        -0.373307
 C         2.584885        -0.445396         1.131475
 H        -0.271652         0.765309         1.310340
 H        -0.647599         0.143766        -0.372079
 H        -0.249961        -1.064582         0.837998
 H         1.307369        -1.916629        -1.267083
 H         2.561367        -0.680348        -1.861987
 H         3.260486        -3.245584        -0.093874
 H         4.752347         0.055161         0.966020
 H         1.861667         2.198805         0.431838
 H         1.723625         1.701752        -1.336565
 H         2.507668        -0.306017         2.252765
