19
Iteration:   152charge 0 multiplicity 1
 C         0.002207        -0.151823         0.288406
 C         1.483964         0.015453        -0.011483
 C         2.029738        -1.011862        -1.099060
 C         3.198830        -1.256770        -0.082721
 O         3.726981        -2.562228         0.335935
 C         3.869590        -0.019772         0.362951
 O         3.609904         1.175606        -0.410007
 C         2.151689         1.410622        -0.279567
 C         2.560549        -0.498386         1.005594
 H        -0.462935         0.467195         1.168679
 H        -0.618537         0.020942        -0.654983
 H        -0.136254        -1.160409         0.596418
 H         1.458434        -1.872290        -1.222686
 H         2.223378        -0.396725        -2.078525
 H         4.315329        -2.803644        -0.375347
 H         4.847040         0.020670         0.925891
 H         1.950918         1.996233         0.686319
 H         2.014667         1.955230        -1.205612
 H         2.591240        -0.696632         2.097874
