19
Iteration:  2934charge 0 multiplicity 1
 C         0.036842         0.185655         0.512893
 C         1.463001        -0.038890        -0.001497
 C         1.871902        -1.270114        -0.943732
 C         3.161353        -1.284619        -0.095655
 O         4.176120        -2.363391         0.008854
 C         3.671944         0.011695         0.509632
 O         3.553528         1.195815        -0.222106
 C         2.180964         1.215885        -0.686650
 C         2.515065        -0.565723         1.010361
 H         0.029528         1.181392         1.107730
 H        -0.575127         0.291083        -0.260655
 H        -0.315357        -0.586547         1.263574
 H         1.241841        -2.258156        -0.837637
 H         1.954667        -1.037417        -1.922449
 H         3.551034        -2.957400         0.501665
 H         4.712154        -0.198939         0.913652
 H         1.695970         2.155813        -0.381318
 H         2.163558         1.093082        -1.785908
 H         2.203314        -0.846053         2.104036
