19
Iteration:   840
 C         0.076480         0.074728         0.206531
 C         1.510660         0.034489         0.020849
 C         2.023709        -1.078248        -0.989027
 C         3.195049        -1.330949        -0.039255
 O         3.911429        -2.533218         0.181498
 C         3.780421        -0.068964         0.428538
 O         3.515366         1.118546        -0.374500
 C         2.118837         1.392509        -0.296745
 C         2.522438        -0.532790         1.073292
 H        -0.296840         0.589522         1.111665
 H        -0.466146         0.561654        -0.587614
 H        -0.375129        -0.901712         0.104859
 H         1.312248        -1.960584        -1.047041
 H         2.265149        -0.726946        -1.972036
 H         4.439192        -2.604755        -0.687733
 H         4.739994        -0.082039         0.908612
 H         1.918814         2.155951         0.472754
 H         1.733914         1.774513        -1.247354
 H         2.306805        -0.869277         2.147461
