19
Iteration:   627charge 0 multiplicity 1
 C        -0.038038         0.203913         0.303507
 C         1.468872        -0.050546         0.014204
 C         2.089400        -1.106439        -1.024215
 C         3.229886        -1.313862        -0.043276
 O         3.899626        -2.626978         0.100355
 C         3.767795         0.006819         0.437397
 O         3.522875         1.263475        -0.169112
 C         2.132432         1.240656        -0.517249
 C         2.549519        -0.526391         1.110500
 H        -0.164279         1.029798         1.004792
 H        -0.600054         0.356949        -0.589381
 H        -0.342642        -0.753270         0.953179
 H         1.488646        -2.048244        -1.225729
 H         2.405040        -0.678678        -1.950705
 H         4.032487        -2.997750        -0.839897
 H         4.748653        -0.088354         0.876159
 H         1.666392         2.100583        -0.025728
 H         2.194852         1.449290        -1.724887
 H         2.547488        -0.809784         2.222989
