19
Iteration:  3437
 C         0.023952        -0.061154         0.413894
 C         1.465463         0.005328        -0.048448
 C         2.095784        -1.062779        -1.078231
 C         3.217857        -1.324000        -0.051929
 O         3.931597        -2.466621         0.224546
 C         3.770917         0.018117         0.332823
 O         3.552230         1.077200        -0.525122
 C         2.111866         1.365749        -0.232587
 C         2.520633        -0.451455         1.013033
 H        -0.194418         0.638295         1.417082
 H        -0.661135         0.295830        -0.289873
 H        -0.257775        -1.140517         0.694394
 H         1.342981        -1.911265        -1.101931
 H         2.596707        -0.774330        -2.056811
 H         3.279056        -3.086617         0.644415
 H         4.667028         0.210174         0.773341
 H         2.146453         2.106649         0.602994
 H         1.706002         1.896817        -1.159454
 H         2.299488        -0.687954         2.049821
