19
Iteration:  3770charge 0 multiplicity 1
 C        -0.021585         0.080270         0.382688
 C         1.490042         0.013990         0.010409
 C         1.955156        -1.140404        -0.905756
 C         3.175926        -1.374791         0.002389
 O         4.108122        -2.401567         0.000632
 C         3.718302        -0.039573         0.478231
 O         3.569313         1.104234        -0.424094
 C         2.130999         1.339420        -0.496901
 C         2.484932        -0.473422         1.140581
 H        -0.137139         0.582244         1.360426
 H        -0.617993         0.458583        -0.476993
 H        -0.358175        -0.868148         0.667068
 H         1.310965        -2.073097        -0.938071
 H         2.242089        -0.824580        -1.872478
 H         3.729809        -3.329850        -0.061806
 H         4.739722        -0.266645         0.979026
 H         1.832063         2.233749         0.134679
 H         1.910083         1.629156        -1.629486
 H         2.449276        -0.451375         2.227275
