19
Iteration:  3179charge 0 multiplicity 1
 C         0.043171         0.213306         0.399783
 C         1.460378        -0.027538         0.040469
 C         2.048080        -1.229275        -0.936709
 C         3.259151        -1.379285         0.010857
 O         4.143619        -2.455463         0.029542
 C         3.684545        -0.001383         0.426573
 O         3.449185         1.119483        -0.439684
 C         2.083781         1.317907        -0.430511
 C         2.470750        -0.476361         1.124381
 H        -0.016266         0.970886         1.060767
 H        -0.459063         0.572280        -0.582847
 H        -0.448709        -0.682002         0.669915
 H         1.474118        -2.119767        -0.853831
 H         2.131138        -1.015487        -2.028072
 H         3.628903        -3.261707        -0.217462
 H         4.744502        -0.077952         0.754216
 H         1.836285         2.102847         0.299222
 H         1.665920         1.714464        -1.452082
 H         2.503992        -0.641639         2.251912
