19
Iteration:  1527
 C        -0.047186         0.036885         0.348695
 C         1.488964        -0.023848        -0.029068
 C         1.969599        -1.224710        -0.958693
 C         3.164407        -1.338755        -0.005754
 O         3.996856        -2.410560         0.032700
 C         3.741924        -0.034861         0.463835
 O         3.652262         1.176579        -0.275860
 C         2.190598         1.358009        -0.468750
 C         2.468982        -0.500102         1.104625
 H        -0.202054         0.754344         1.094992
 H        -0.681373         0.412270        -0.502519
 H        -0.517865        -0.925060         0.749083
 H         1.320304        -2.052786        -0.894086
 H         2.170346        -0.967452        -2.052424
 H         4.000645        -2.899730        -0.767062
 H         4.601304        -0.089007         1.046022
 H         1.962113         2.141488         0.191403
 H         2.088375         1.680153        -1.619998
 H         2.289854        -0.386457         2.150098
