19
Iteration:  4871
 C         0.016953         0.047969         0.376920
 C         1.496431        -0.005732        -0.024373
 C         2.018165        -1.155287        -0.907201
 C         3.174965        -1.314424         0.059306
 O         3.998710        -2.401451        -0.043313
 C         3.785992        -0.023616         0.524869
 O         3.533530         1.101304        -0.368578
 C         2.144819         1.347553        -0.531623
 C         2.481128        -0.498456         1.106685
 H        -0.054930         0.623185         1.332382
 H        -0.564576         0.555727        -0.316290
 H        -0.266088        -0.892381         0.510219
 H         1.345474        -1.997908        -0.857065
 H         2.396086        -0.884580        -1.936393
 H         3.444688        -3.116440        -0.287876
 H         4.702126         0.040945         1.177851
 H         1.880700         2.182287         0.073749
 H         1.848254         1.483377        -1.658522
 H         2.473029        -0.770320         2.252017
