19
Iteration:   791
 C         0.106634         0.130200         0.315447
 C         1.554512        -0.067611        -0.024009
 C         2.071201        -1.122165        -0.983716
 C         3.170445        -1.355334         0.034975
 O         3.899855        -2.501519        -0.054852
 C         3.714310        -0.061393         0.474049
 O         3.550137         1.168163        -0.255997
 C         2.075229         1.328749        -0.508236
 C         2.486346        -0.520870         1.147534
 H        -0.134665         1.006883         0.924120
 H        -0.592445         0.320953        -0.542134
 H        -0.318113        -0.790099         0.813250
 H         1.258334        -1.856987        -1.037125
 H         2.411225        -0.814413        -2.014325
 H         4.613213        -2.447718         0.555663
 H         4.636667        -0.194879         1.091825
 H         1.709172         2.142548         0.079503
 H         1.953729         1.540819        -1.606740
 H         2.255560        -0.364492         2.192158
