19
Iteration:   650
 C         0.110614         0.030383         0.317896
 C         1.545483         0.042982        -0.031797
 C         1.976200        -1.140208        -0.983790
 C         3.101155        -1.420294        -0.003777
 O         3.923925        -2.514367         0.097428
 C         3.724410        -0.075847         0.481121
 O         3.612942         1.204871        -0.248531
 C         2.152834         1.423860        -0.469646
 C         2.457888        -0.502361         1.030957
 H        -0.173389         0.683908         1.082013
 H        -0.426662         0.258714        -0.608683
 H        -0.158128        -1.050982         0.717348
 H         1.168212        -1.864655        -0.898435
 H         2.229855        -0.999010        -2.029321
 H         4.455186        -2.522924        -0.670945
 H         4.718631        -0.119171         0.998000
 H         1.892169         2.244824         0.211196
 H         1.986441         1.781972        -1.637070
 H         2.033266        -0.569800         2.127712
