19
Iteration:  1212
 C         0.018878         0.157552         0.319415
 C         1.511049        -0.029376        -0.004264
 C         2.097798        -1.164230        -0.986464
 C         3.232641        -1.377280         0.039239
 O         3.877665        -2.627657        -0.043312
 C         3.777315         0.085464         0.557257
 O         3.494308         1.184832        -0.292669
 C         2.130539         1.336454        -0.425445
 C         2.495946        -0.509424         1.096405
 H        -0.148822         0.899376         1.034605
 H        -0.608230         0.311636        -0.566174
 H        -0.485301        -0.837553         0.656857
 H         1.553076        -2.161939        -1.098352
 H         2.508254        -0.766690        -1.929237
 H         4.646395        -2.645493        -0.721432
 H         4.711961         0.237667         1.135916
 H         1.748530         2.209845         0.039178
 H         1.904207         1.510361        -1.499961
 H         2.182345        -0.473902         2.134283
