19
Iteration:   558
 C        -0.032780        -0.066089         0.276630
 C         1.495903         0.119349        -0.004119
 C         2.029569        -1.026314        -1.006246
 C         3.070715        -1.432652         0.006271
 O         3.938758        -2.519008         0.132292
 C         3.709714        -0.081723         0.351339
 O         3.610719         1.062440        -0.386651
 C         2.248619         1.468850        -0.323051
 C         2.458501        -0.456338         1.100131
 H        -0.256290         0.433108         1.316702
 H        -0.631526         0.337797        -0.573151
 H        -0.113696        -1.173143         0.301081
 H         1.278894        -1.872691        -1.179157
 H         2.347716        -0.703851        -2.017403
 H         4.879598        -2.166016         0.172595
 H         4.642690        -0.142908         0.968563
 H         2.181786         2.249385         0.465410
 H         1.756628         1.818269        -1.372202
 H         2.492305        -0.587400         2.133496
