19
Iteration:   976
 C        -0.032969         0.134365         0.271480
 C         1.432093         0.002197        -0.080600
 C         1.913904        -1.252992        -0.920720
 C         3.150395        -1.303818        -0.007450
 O         3.983412        -2.363126        -0.104752
 C         3.759946        -0.079112         0.521915
 O         3.672992         1.058863        -0.360920
 C         2.224537         1.310651        -0.352163
 C         2.466482        -0.514018         1.168347
 H        -0.177245         0.943943         1.091149
 H        -0.591514         0.651052        -0.607296
 H        -0.417570        -0.891448         0.276580
 H         1.246605        -2.101413        -0.758369
 H         2.093493        -0.955497        -2.006989
 H         4.696817        -2.256668         0.522661
 H         4.608368        -0.138517         1.210237
 H         2.045570         1.970441         0.524335
 H         1.879124         1.729264        -1.226086
 H         2.281885        -0.461591         2.162507
