19
Iteration:  3199
 C         0.001421         0.041412         0.434274
 C         1.484713        -0.032848         0.005697
 C         2.076833        -1.083608        -0.994270
 C         3.208397        -1.383429         0.009305
 O         4.013313        -2.508456         0.096734
 C         3.786916         0.012028         0.345865
 O         3.522095         1.156385        -0.448457
 C         2.031575         1.341674        -0.407663
 C         2.574404        -0.474887         1.059367
 H        -0.046475         0.863165         1.160839
 H        -0.704938         0.210317        -0.351774
 H        -0.286098        -0.901939         0.889844
 H         1.296496        -1.834709        -1.183134
 H         2.443894        -0.736528        -1.897061
 H         3.478384        -3.242408         0.558676
 H         4.715559         0.068517         1.038248
 H         1.729951         2.146398         0.203373
 H         1.717712         1.616018        -1.439890
 H         2.264174        -0.406877         2.167244
