19
Iteration:  1425charge 0 multiplicity 1
 C         0.062990        -0.005522         0.341283
 C         1.554164         0.058845        -0.012097
 C         2.065413        -1.030289        -1.029804
 C         3.140879        -1.329293        -0.042356
 O         3.873669        -2.553351         0.128453
 C         3.736607        -0.021461         0.424093
 O         3.551208         1.128778        -0.363758
 C         2.141776         1.397624        -0.414118
 C         2.468785        -0.572143         1.117314
 H        -0.230324         0.611659         1.257405
 H        -0.649883         0.199144        -0.485651
 H        -0.091327        -1.017227         0.622080
 H         1.336744        -1.893629        -1.080794
 H         2.381869        -0.670505        -2.017847
 H         4.855832        -2.344930        -0.014045
 H         4.770220         0.028564         0.906067
 H         1.862834         2.185768         0.200967
 H         1.846235         1.767919        -1.441314
 H         2.205210        -0.856498         2.164920
