19
Iteration:  1396
 C        -0.053159         0.325793         0.366533
 C         1.482912        -0.083068         0.050207
 C         2.061917        -1.199548        -1.010477
 C         3.253818        -1.326194        -0.025459
 O         4.034029        -2.540609        -0.083824
 C         3.711236        -0.001756         0.506954
 O         3.557215         1.124363        -0.250076
 C         2.109599         1.194811        -0.484937
 C         2.418640        -0.493988         1.162512
 H        -0.025863         1.133192         1.003774
 H        -0.625129         0.516709        -0.636355
 H        -0.625337        -0.636056         0.642087
 H         1.610476        -2.106772        -0.988941
 H         2.306485        -0.826772        -2.087237
 H         4.912587        -2.215179        -0.385566
 H         4.584037         0.051399         1.190264
 H         1.670588         2.131674         0.101213
 H         1.958791         1.420385        -1.625200
 H         2.092210        -0.616833         2.305759
