19
Iteration:  4385charge 0 multiplicity 1
 C         0.070804        -0.080070         0.364160
 C         1.585298        -0.007275         0.085560
 C         2.099938        -1.144243        -0.969410
 C         3.200084        -1.367143         0.023246
 O         3.724575        -2.656193         0.079374
 C         3.804598         0.043733         0.264141
 O         3.505525         1.268277        -0.425061
 C         2.016785         1.424300        -0.421908
 C         2.697076        -0.386543         1.102450
 H        -0.113439         0.680155         1.057611
 H        -0.590684         0.308036        -0.479766
 H        -0.167822        -1.184267         0.640186
 H         1.314187        -2.012312        -0.939900
 H         2.247861        -0.907254        -2.030813
 H         4.335249        -2.692812         0.817485
 H         4.867043         0.082336         0.640531
 H         1.769849         2.081472         0.531248
 H         1.491600         1.749407        -1.301475
 H         2.603212        -0.497588         2.167096
