19
Iteration:  2767charge 0 multiplicity 1
 C        -0.000971         0.181008         0.302474
 C         1.511251         0.007624         0.136664
 C         1.977844        -1.291081        -0.801403
 C         3.194743        -1.384383        -0.082332
 O         4.079236        -2.392128        -0.147304
 C         3.720149        -0.002992         0.442279
 O         3.506949         1.225350        -0.203609
 C         2.133047         1.216314        -0.624984
 C         2.547922        -0.465007         1.180619
 H        -0.213015         0.906971         1.154231
 H        -0.574417         0.456336        -0.548708
 H        -0.339578        -0.786171         0.612028
 H         1.197819        -2.017706        -0.428981
 H         1.867030        -1.204106        -1.837032
 H         3.734445        -3.234544         0.114376
 H         4.801169        -0.157511         0.738804
 H         1.702038         2.149462        -0.448813
 H         2.157999         1.119782        -1.727850
 H         2.425703        -0.498798         2.304994
