19
Iteration:   134charge 0 multiplicity 1
 C         0.001991        -0.025760         0.233286
 C         1.539254         0.059885         0.053180
 C         2.172356        -0.915746        -1.025860
 C         3.226615        -1.385629        -0.004530
 O         3.804404        -2.631730         0.268153
 C         3.777968        -0.014454         0.353953
 O         3.479296         1.146303        -0.470589
 C         2.085202         1.423828        -0.279217
 C         2.595023        -0.564883         1.054611
 H        -0.249748         0.554277         1.029917
 H        -0.451245         0.333158        -0.632620
 H        -0.414070        -1.051567         0.591783
 H         1.324024        -1.639101        -1.206324
 H         2.625113        -0.538097        -1.883939
 H         4.393553        -2.948503        -0.420998
 H         4.791328         0.162142         0.825861
 H         1.927520         2.225148         0.393618
 H         1.565858         1.672403        -1.205607
 H         2.301620        -0.740715         2.085147
