19
Iteration:  3185
 C         0.034910         0.161465         0.397813
 C         1.501334        -0.002785         0.032923
 C         2.056027        -1.203853        -0.963463
 C         3.239443        -1.380921        -0.001110
 O         4.125372        -2.487640         0.049000
 C         3.725257        -0.035468         0.407510
 O         3.436463         1.140099        -0.440663
 C         2.064280         1.341309        -0.446830
 C         2.469580        -0.458824         1.126802
 H        -0.101776         1.074844         1.195406
 H        -0.445034         0.517945        -0.455823
 H        -0.525190        -0.732102         0.848518
 H         1.521543        -2.244925        -1.030083
 H         2.226728        -0.907683        -2.014848
 H         3.590301        -3.260624        -0.017848
 H         4.739730         0.041542         0.866462
 H         1.825095         2.091944         0.357332
 H         1.732084         1.662427        -1.370567
 H         2.500664        -0.540251         2.197396
