19
Iteration:  4347
 C         0.016854        -0.011935         0.404482
 C         1.528849         0.052299         0.041631
 C         1.969089        -1.120303        -0.917437
 C         3.220075        -1.328411        -0.095172
 O         3.947915        -2.501698         0.039204
 C         3.722963        -0.018086         0.420684
 O         3.573529         1.074393        -0.458808
 C         2.068740         1.358657        -0.409136
 C         2.557976        -0.434114         1.105568
 H        -0.301280         0.825184         1.155506
 H        -0.558089         0.158749        -0.470694
 H        -0.295423        -0.839341         0.935143
 H         1.245149        -1.881886        -0.795117
 H         2.084534        -0.893414        -2.010886
 H         4.735420        -2.394530         0.548476
 H         4.672353        -0.005861         0.914120
 H         1.907971         2.217519         0.224558
 H         1.864712         1.684185        -1.559708
 H         2.424836        -0.821088         2.114139
