19
Iteration:  4629
 C         0.036863         0.035487         0.296901
 C         1.515555         0.045471         0.019357
 C         1.961116        -1.155265        -0.889941
 C         3.188364        -1.323278        -0.030737
 O         3.978788        -2.470666        -0.045523
 C         3.756868        -0.015357         0.371426
 O         3.522013         1.130093        -0.413840
 C         2.130056         1.366128        -0.385929
 C         2.506723        -0.516428         1.171842
 H        -0.139459         0.784945         1.118967
 H        -0.506464         0.166881        -0.658755
 H        -0.261576        -0.964104         0.695175
 H         1.391760        -2.080563        -0.739211
 H         2.148078        -1.120407        -1.975374
 H         4.367579        -2.646352         0.848120
 H         4.715095         0.025706         0.974049
 H         1.929387         2.012536         0.453395
 H         1.909632         1.889769        -1.326221
 H         2.422748        -0.664584         2.269089
