19
Iteration:  4547
 C         0.074452        -0.118872         0.490683
 C         1.520609         0.006717        -0.082878
 C         2.022645        -1.092899        -0.983159
 C         3.169131        -1.333787        -0.007671
 O         3.913184        -2.519647         0.129975
 C         3.742849         0.005961         0.361548
 O         3.595634         1.166726        -0.444756
 C         2.089262         1.370108        -0.376616
 C         2.487311        -0.395736         1.071402
 H        -0.097391         0.604052         1.329494
 H        -0.747308         0.231406        -0.136129
 H        -0.030741        -1.175701         0.881313
 H         1.404486        -1.985481        -1.205218
 H         2.525791        -0.678802        -1.865955
 H         3.742834        -3.238476        -0.585461
 H         4.728763         0.053837         0.869075
 H         1.869307         2.159143         0.363587
 H         2.005043         1.847531        -1.449263
 H         2.321071        -0.274084         2.111430
