19
Iteration:  1069charge 0 multiplicity 1
 C         0.123776        -0.168659         0.299598
 C         1.564781         0.092665        -0.107015
 C         1.973629        -1.032695        -1.067410
 C         3.150533        -1.355348        -0.088440
 O         3.849726        -2.551926         0.281665
 C         3.740731        -0.021573         0.420539
 O         3.585180         1.203036        -0.342405
 C         2.202904         1.513791        -0.238785
 C         2.464536        -0.522075         0.953136
 H        -0.178609         0.482910         1.032654
 H        -0.602434        -0.012009        -0.526539
 H         0.104833        -1.249073         0.611014
 H         1.147235        -1.759364        -1.038396
 H         2.396685        -0.888808        -2.015646
 H         3.904263        -3.212918        -0.464187
 H         4.760265        -0.082929         0.809366
 H         2.005508         2.077180         0.696097
 H         1.950477         2.085709        -1.208476
 H         2.040916        -0.731230         1.979439
