19
Iteration:  1718charge 0 multiplicity 1
 C         0.050683         0.065648         0.272202
 C         1.525648        -0.047209         0.037775
 C         1.905173        -1.254136        -0.909423
 C         3.140964        -1.302374        -0.059379
 O         3.980553        -2.465886         0.065273
 C         3.779849         0.037791         0.443186
 O         3.577087         1.252489        -0.221601
 C         2.145340         1.331606        -0.521676
 C         2.535041        -0.524584         1.136318
 H        -0.088936         0.882591         1.070614
 H        -0.401774         0.359155        -0.663407
 H        -0.426912        -0.849937         0.497908
 H         1.229878        -2.204896        -0.750627
 H         2.000176        -1.014484        -1.964172
 H         4.165282        -2.865231        -0.829652
 H         4.710674        -0.015856         0.874341
 H         1.834725         2.197727        -0.004456
 H         1.911619         1.271691        -1.682788
 H         2.292896        -0.826345         2.135375
