19
Iteration:  4222charge 0 multiplicity 1
 C         0.092434        -0.063715         0.538905
 C         1.568697        -0.016255         0.009265
 C         2.116863        -1.014381        -1.045093
 C         3.208844        -1.295437        -0.040392
 O         3.823410        -2.599381         0.205983
 C         3.784837         0.110238         0.433779
 O         3.510677         1.147185        -0.528731
 C         2.092885         1.385757        -0.399388
 C         2.503687        -0.518774         1.040874
 H        -0.298170         0.648523         1.197960
 H        -0.577241         0.173418        -0.395535
 H        -0.171894        -1.192166         0.728586
 H         1.360194        -1.973393        -1.087198
 H         2.346626        -0.739707        -2.024564
 H         4.123028        -2.948899        -0.653295
 H         4.717153         0.259174         0.899757
 H         2.004716         2.186903         0.348953
 H         1.753064         1.696235        -1.429537
 H         2.116086        -0.729883         2.083945
