19
Iteration:  1259
 C         0.052996        -0.194174         0.263659
 C         1.550816         0.070198         0.079938
 C         1.988721        -0.955695        -1.181960
 C         3.210702        -1.302324        -0.109024
 O         3.825434        -2.534452         0.354998
 C         3.782165        -0.049498         0.376866
 O         3.562244         1.129358        -0.413778
 C         2.166266         1.522295        -0.237373
 C         2.546770        -0.554954         1.014502
 H        -0.536695         0.408526         1.048087
 H        -0.341809         0.105475        -0.625719
 H        -0.331598        -1.174848         0.268273
 H         1.232458        -1.836263        -1.076231
 H         2.131103        -0.611771        -2.130308
 H         4.171673        -2.925865        -0.461723
 H         4.790899        -0.118545         0.748896
 H         2.069968         2.141689         0.610080
 H         1.680247         2.261108        -1.047719
 H         2.488497        -1.002304         2.093676
