19
Iteration:  1858
 C         0.061182        -0.190281         0.312799
 C         1.538088         0.020402         0.032646
 C         2.186993        -0.885066        -1.003579
 C         3.244855        -1.357356         0.045333
 O         3.719449        -2.609346         0.168307
 C         3.792178         0.052571         0.338449
 O         3.464027         1.079698        -0.582084
 C         2.107186         1.462645        -0.251904
 C         2.558867        -0.504329         1.056899
 H        -0.242061         0.568528         1.138137
 H        -0.450402         0.063970        -0.574677
 H        -0.299257        -1.283469         0.532097
 H         1.438108        -1.623272        -1.456104
 H         2.600708        -0.402756        -1.830796
 H         4.431237        -2.618384         0.901421
 H         4.595981         0.198250         1.002779
 H         2.070930         2.275234         0.557343
 H         1.630634         1.815937        -1.182300
 H         2.545301        -0.517335         2.113184
