19
Iteration:  1921charge 0 multiplicity 1
 C        -0.001915         0.109080         0.348505
 C         1.499899        -0.002958        -0.033121
 C         1.957632        -1.243192        -0.884873
 C         3.212595        -1.310386        -0.063983
 O         3.966510        -2.535088        -0.077828
 C         3.747433         0.005353         0.507139
 O         3.578451         1.257887        -0.201836
 C         2.147518         1.289508        -0.561547
 C         2.502416        -0.507146         1.102391
 H        -0.164109         0.824312         1.063735
 H        -0.666510         0.350146        -0.490470
 H        -0.463205        -0.799077         0.885323
 H         1.297633        -1.999874        -0.649308
 H         2.102209        -1.093869        -1.982672
 H         4.856929        -2.471153         0.390689
 H         4.682684         0.013548         0.950044
 H         1.660077         2.203393        -0.208674
 H         2.126657         1.169636        -1.621877
 H         2.200558        -0.649275         2.119317
