19
Iteration:  1966
 C         0.075813         0.256241         0.234420
 C         1.506428        -0.079842         0.034144
 C         1.912555        -1.281805        -0.842191
 C         3.186032        -1.347502         0.017761
 O         4.109233        -2.419893        -0.160157
 C         3.671228        -0.002592         0.573487
 O         3.508608         1.112128        -0.267310
 C         2.147315         1.264936        -0.544714
 C         2.463645        -0.519119         1.173625
 H        -0.007242         0.915721         1.066451
 H        -0.220504         0.757404        -0.644185
 H        -0.611967        -0.627275         0.515245
 H         1.261818        -2.036108        -0.429946
 H         1.844207        -1.253159        -1.965644
 H         4.956255        -2.000753        -0.450448
 H         4.595900         0.115425         1.205542
 H         1.877024         2.138753         0.126213
 H         1.814747         1.308851        -1.590876
 H         2.187955        -0.690820         2.205083
