19
Iteration:  2442charge 0 multiplicity 1
 C         0.028954        -0.181807         0.252780
 C         1.519036         0.048194         0.073093
 C         2.094287        -0.981953        -0.997865
 C         3.238765        -1.305162         0.046144
 O         3.749633        -2.583871         0.154591
 C         3.820205         0.031557         0.381166
 O         3.543570         1.094286        -0.556756
 C         2.070057         1.427579        -0.283197
 C         2.575346        -0.439618         1.114754
 H        -0.558884         0.229908         1.133005
 H        -0.428772         0.213242        -0.602809
 H        -0.229535        -1.259646         0.138471
 H         1.406038        -1.824892        -0.955131
 H         2.292442        -0.689603        -1.984971
 H         4.765334        -2.600194         0.141764
 H         4.754025         0.151714         0.794204
 H         2.221968         2.137042         0.507717
 H         1.550307         2.043454        -1.034961
 H         2.506946        -0.562671         2.209436
