19
Iteration:   562charge 0 multiplicity 1
 C        -0.032790        -0.040098         0.277774
 C         1.448509         0.091463        -0.004248
 C         2.033546        -1.050886        -1.016959
 C         3.057869        -1.445301         0.024749
 O         3.946358        -2.525530         0.127760
 C         3.736880        -0.094560         0.342363
 O         3.621132         1.091781        -0.356618
 C         2.252273         1.476562        -0.312370
 C         2.465857        -0.431469         1.075057
 H        -0.216458         0.456558         1.149448
 H        -0.689110         0.288031        -0.478880
 H        -0.179027        -1.215020         0.278988
 H         1.280123        -1.862322        -1.140951
 H         2.382576        -0.873565        -2.014775
 H         4.775484        -2.089429         0.020918
 H         4.638589        -0.113229         0.896043
 H         2.133348         2.280684         0.394945
 H         1.834002         1.747315        -1.301046
 H         2.548297        -0.557846         2.180341
