19
Iteration:  4801charge 0 multiplicity 1
 C         0.047905        -0.006496         0.321178
 C         1.510578         0.005631        -0.007299
 C         1.958149        -1.167412        -0.934223
 C         3.160478        -1.351359        -0.044241
 O         3.966200        -2.480676        -0.012863
 C         3.773747         0.011496         0.409224
 O         3.592176         1.205865        -0.351593
 C         2.125930         1.349548        -0.364510
 C         2.501075        -0.449492         1.053293
 H        -0.188705         0.847172         0.881301
 H        -0.410932         0.156681        -0.679590
 H        -0.142347        -0.980884         0.941665
 H         1.525450        -2.200726        -0.667187
 H         2.083772        -0.896251        -1.975173
 H         3.763154        -3.055204         0.692402
 H         4.529457        -0.049754         1.200164
 H         1.874467         2.040481         0.480712
 H         1.871851         1.742743        -1.339829
 H         2.367418        -0.709958         2.042236
