19
Iteration:  4165
 C         0.078690        -0.000557         0.338958
 C         1.535604         0.009430        -0.034121
 C         1.904874        -1.220531        -0.868807
 C         3.220448        -1.355173        -0.080636
 O         3.850070        -2.571957         0.078742
 C         3.796239         0.050550         0.337457
 O         3.537427         1.209559        -0.464648
 C         2.122242         1.439962        -0.329690
 C         2.567504        -0.473315         1.116941
 H        -0.199636         0.654898         1.194307
 H        -0.517984         0.035799        -0.642184
 H        -0.165414        -0.995365         0.751375
 H         1.308476        -2.118279        -0.616965
 H         1.990521        -1.111565        -1.982507
 H         4.822765        -2.400156         0.271796
 H         4.609969         0.132973         1.061883
 H         1.917853         2.233022         0.426362
 H         1.801767         1.810212        -1.251753
 H         2.657223        -0.653439         2.148615
