19
Iteration:  3298
 C        -0.016587         0.052797         0.398803
 C         1.508318        -0.048783         0.027086
 C         2.009944        -1.097426        -0.970941
 C         3.275024        -1.330637        -0.074916
 O         3.999055        -2.451708         0.129749
 C         3.784159         0.030203         0.437705
 O         3.515880         1.086129        -0.494587
 C         2.104284         1.342390        -0.404931
 C         2.542151        -0.496402         1.089590
 H        -0.104813         0.826102         1.183872
 H        -0.640175         0.452108        -0.471771
 H        -0.435530        -0.884629         0.691827
 H         1.320244        -1.902355        -1.078634
 H         2.093865        -0.657619        -1.908182
 H         3.448463        -3.175333         0.513819
 H         4.770573         0.000573         0.796799
 H         1.833145         2.189472         0.280447
 H         1.648245         1.566594        -1.413561
 H         2.486805        -0.797479         2.166231
