19
Iteration:  4733charge 0 multiplicity 1
 C         0.038854        -0.070877         0.378347
 C         1.494423        -0.030993        -0.030411
 C         2.075608        -1.139206        -1.048534
 C         3.228041        -1.347088        -0.037620
 O         3.891391        -2.517488         0.177769
 C         3.777826         0.006290         0.355948
 O         3.559033         1.223539        -0.405375
 C         2.121210         1.440904        -0.337668
 C         2.520844        -0.396369         1.062774
 H        -0.204965         0.465677         1.301942
 H        -0.555255         0.489453        -0.384490
 H        -0.116410        -1.216468         0.540564
 H         1.437034        -2.097466        -0.947065
 H         2.181682        -0.951757        -2.124612
 H         3.304177        -3.215593        -0.296946
 H         4.715338        -0.044496         0.887641
 H         1.866994         1.901026         0.649344
 H         1.858511         1.877887        -1.238511
 H         2.367727        -0.853182         2.095987
