19
Iteration:  2046charge 0 multiplicity 1
 C         0.096045        -0.280087         0.427072
 C         1.487458         0.017147        -0.043914
 C         2.238219        -1.011037        -1.134195
 C         3.186918        -1.269528        -0.031813
 O         3.625908        -2.633421         0.280400
 C         3.883227         0.074845         0.384883
 O         3.506757         1.192353        -0.463515
 C         2.077296         1.450877        -0.303906
 C         2.616528        -0.421529         1.033465
 H        -0.336838         0.507762         1.200750
 H        -0.641466        -0.201155        -0.360996
 H        -0.056439        -1.297482         0.711508
 H         1.651600        -1.918904        -1.586316
 H         2.693720        -0.507477        -1.931523
 H         3.870809        -3.038379        -0.582104
 H         4.794336         0.207208         0.952784
 H         1.876219         2.249570         0.587432
 H         1.730159         1.985767        -1.164432
 H         2.397615        -0.464650         2.084517
