19
Iteration:  4329charge 0 multiplicity 1
 C         0.055398         0.112318         0.423178
 C         1.488593         0.014498         0.012035
 C         2.040230        -1.178575        -0.913875
 C         3.148254        -1.369309         0.105852
 O         4.012235        -2.500652        -0.084096
 C         3.752822        -0.043155         0.423486
 O         3.506651         1.101419        -0.444360
 C         2.170812         1.348206        -0.487027
 C         2.396744        -0.473762         1.125180
 H        -0.034297         0.849788         1.220300
 H        -0.667516         0.073309        -0.387084
 H        -0.215841        -0.819634         1.011646
 H         1.469187        -2.102913        -0.835157
 H         2.242308        -0.868324        -1.980651
 H         4.925049        -2.247517         0.038144
 H         4.698801         0.128568         0.918571
 H         1.877046         2.144493         0.306789
 H         1.704798         1.714546        -1.375130
 H         2.198899        -0.221155         2.219040
