19
Iteration:  1058charge 0 multiplicity 1
 C         0.075549        -0.130121         0.322904
 C         1.503238         0.058895        -0.136385
 C         2.022417        -1.139471        -1.093674
 C         3.122712        -1.334722        -0.099606
 O         3.807767        -2.485697         0.261868
 C         3.737745         0.007525         0.356625
 O         3.661163         1.218040        -0.239879
 C         2.225530         1.427451        -0.282406
 C         2.502716        -0.486975         0.973372
 H        -0.250234         0.430438         1.126277
 H        -0.614898        -0.054710        -0.536280
 H        -0.063241        -1.171284         0.712491
 H         1.279523        -1.965971        -1.069416
 H         2.048593        -0.846663        -2.109314
 H         3.916208        -2.969789        -0.531975
 H         4.601683        -0.165397         1.018752
 H         1.999283         2.057133         0.608615
 H         1.963018         2.097934        -1.185895
 H         2.478310        -0.758052         2.087398
