19
Iteration:  4948
 C         0.039942         0.015536         0.350775
 C         1.519808        -0.051180         0.007903
 C         2.042687        -1.063834        -1.029589
 C         3.219457        -1.354634        -0.092796
 O         3.944018        -2.536159         0.154504
 C         3.779918         0.041116         0.357049
 O         3.479699         1.168602        -0.390506
 C         2.085413         1.333256        -0.292002
 C         2.620803        -0.484140         1.050398
 H        -0.079162         0.997178         0.874089
 H        -0.506702        -0.015334        -0.540990
 H        -0.187633        -0.781884         0.891067
 H         1.447385        -1.886012        -1.274222
 H         2.230860        -0.680362        -2.040630
 H         3.182412        -3.181661         0.397299
 H         4.663765         0.155534         1.013412
 H         1.858745         2.127790         0.365558
 H         1.717087         1.657189        -1.353823
 H         2.341628        -0.552700         2.179282
