19
Iteration:  4743
 C         0.106298        -0.068058         0.320201
 C         1.553223         0.003947        -0.031726
 C         2.041396        -1.071011        -1.013720
 C         3.160171        -1.309763        -0.039394
 O         3.930969        -2.565093         0.160113
 C         3.762805         0.009046         0.423981
 O         3.496820         1.211360        -0.469277
 C         2.131518         1.369447        -0.303397
 C         2.549564        -0.473046         1.087670
 H        -0.034702         0.425256         1.333493
 H        -0.658455         0.289785        -0.389547
 H        -0.335118        -1.105899         0.477050
 H         1.406752        -1.922327        -1.192783
 H         2.374953        -0.653683        -1.977630
 H         3.303505        -3.352257        -0.042838
 H         4.758075         0.040691         0.804804
 H         1.833804         2.088089         0.525551
 H         1.724496         1.819111        -1.146313
 H         2.266849        -0.299715         2.185770
