19
Iteration:  4945
 C         0.061424         0.015169         0.337167
 C         1.513085        -0.043961         0.041385
 C         2.038056        -1.075177        -1.045890
 C         3.225859        -1.341133        -0.098751
 O         3.932684        -2.511289         0.165005
 C         3.786322        -0.000639         0.366945
 O         3.484916         1.186508        -0.424064
 C         2.067530         1.343342        -0.298948
 C         2.627856        -0.511206         1.064756
 H        -0.057063         1.048789         0.785611
 H        -0.466128         0.081288        -0.631970
 H        -0.297552        -0.940076         0.943326
 H         1.356020        -1.905720        -1.200909
 H         2.254698        -0.575606        -1.969436
 H         3.213248        -3.131375         0.397699
 H         4.681550         0.109887         1.058424
 H         1.753205         2.126427         0.463548
 H         1.787173         1.595599        -1.313781
 H         2.396117        -0.655944         2.166673
