19
Iteration:   606
 C         0.025572         0.179127         0.287845
 C         1.576513        -0.035490         0.021075
 C         2.062810        -1.132066        -0.982318
 C         3.319103        -1.253278        -0.081813
 O         3.803109        -2.557302         0.105401
 C         3.840582         0.068565         0.527216
 O         3.487350         1.216588        -0.244399
 C         2.078763         1.286500        -0.438218
 C         2.533392        -0.660982         1.011606
 H         0.090211         1.053516         0.821626
 H        -0.352758         0.458797        -0.662078
 H        -0.562947        -0.665851         0.850097
 H         1.498412        -2.054177        -0.797306
 H         2.094670        -0.959135        -2.041026
 H         3.931648        -2.946727        -0.724672
 H         4.628982         0.005012         1.244314
 H         1.578307         2.184353        -0.095277
 H         2.019041         1.249957        -1.619958
 H         2.324393        -1.105798         2.071143
