19
Iteration:  2698
 C        -0.025083         0.011132         0.415769
 C         1.535909        -0.000828        -0.005123
 C         2.058222        -1.090496        -0.969106
 C         3.192789        -1.381404         0.003684
 O         4.005474        -2.510142         0.130446
 C         3.723272         0.022351         0.379030
 O         3.512947         1.134470        -0.515319
 C         2.085396         1.346798        -0.372462
 C         2.611038        -0.466130         1.100877
 H        -0.056414         0.756923         1.084299
 H        -0.836227         0.297647        -0.390052
 H        -0.382382        -0.892075         0.895582
 H         1.487511        -1.930430        -1.100631
 H         2.413767        -0.695093        -1.981366
 H         3.485422        -3.265706        -0.150616
 H         4.632094         0.154227         0.869700
 H         1.977623         2.085255         0.362174
 H         1.569307         1.761373        -1.284780
 H         2.381607        -0.366760         2.175514
