19
Iteration:  4610charge 0 multiplicity 1
 C        -0.037076        -0.044813         0.335361
 C         1.540857         0.006273         0.036652
 C         2.036607        -1.133512        -0.961602
 C         3.118282        -1.424132         0.051315
 O         3.961992        -2.524957         0.022960
 C         3.813446         0.012506         0.312348
 O         3.541307         1.198873        -0.426040
 C         2.101521         1.422276        -0.329301
 C         2.601606        -0.446221         1.108261
 H        -0.349814         0.665950         1.162019
 H        -0.462131         0.191021        -0.605522
 H        -0.402250        -0.965284         0.493164
 H         1.263967        -1.770285        -1.162042
 H         2.315954        -0.620105        -1.940905
 H         3.830490        -2.972750         0.941929
 H         4.883572        -0.201916         0.591521
 H         1.784476         2.264464         0.322668
 H         1.658846         1.592277        -1.210076
 H         2.464309        -0.480678         2.171719
