19
Iteration:  4642
 C         0.030644         0.079329         0.342315
 C         1.501688        -0.048064         0.024175
 C         1.967501        -1.192696        -0.894131
 C         3.271077        -1.289610        -0.045088
 O         3.973862        -2.480503        -0.080526
 C         3.749652         0.009315         0.515804
 O         3.567935         1.109508        -0.425492
 C         2.118777         1.318989        -0.361876
 C         2.465319        -0.485378         1.052001
 H        -0.369940         0.972356         0.960955
 H        -0.528788         0.310998        -0.528795
 H        -0.348932        -0.759670         0.772597
 H         1.338737        -1.928803        -0.599449
 H         1.822999        -0.956219        -1.988216
 H         4.649073        -2.426913         0.615968
 H         4.717573         0.086535         1.099688
 H         1.907687         2.128253         0.306357
 H         1.807222         1.484843        -1.283117
 H         2.221811        -0.489952         2.087185
