19
Iteration:   311charge 0 multiplicity 1
 C         0.064741        -0.038082         0.387286
 C         1.494499        -0.026101         0.012489
 C         2.216998        -0.942318        -1.038713
 C         3.265779        -1.282108        -0.047488
 O         3.687722        -2.656486         0.108596
 C         3.739447         0.095701         0.506093
 O         3.544541         1.123085        -0.377090
 C         2.106482         1.413269        -0.451219
 C         2.544000        -0.540666         1.060909
 H        -0.055895         0.792042         1.018836
 H        -0.573630         0.080311        -0.489702
 H        -0.232304        -1.063984         0.868980
 H         1.448780        -1.813027        -1.065121
 H         2.473614        -0.626400        -2.014328
 H         4.594310        -2.834399        -0.251860
 H         4.628159         0.240309         1.207779
 H         1.730224         2.248322         0.155475
 H         1.802538         1.444671        -1.448759
 H         2.415016        -0.898063         2.120592
