19
Iteration:  4406charge 0 multiplicity 1
 C         0.144456        -0.090245         0.450579
 C         1.565877         0.072806        -0.011745
 C         2.083913        -1.097525        -0.919084
 C         3.233241        -1.368333         0.010908
 O         3.763331        -2.674549         0.035671
 C         3.780453         0.076584         0.384553
 O         3.501256         1.176644        -0.515528
 C         2.062551         1.405347        -0.376750
 C         2.560977        -0.387296         1.052559
 H        -0.017453         0.593519         1.297070
 H        -0.671490         0.182511        -0.250826
 H         0.045408        -1.220818         0.625901
 H         1.308291        -1.920498        -1.050785
 H         2.382250        -0.734803        -1.915632
 H         4.318378        -2.906099         0.865114
 H         4.766913         0.345491         0.866362
 H         1.572967         2.177339         0.396993
 H         1.676566         1.649744        -1.437931
 H         2.341569        -0.345496         2.134277
