19
Iteration:  2312charge 0 multiplicity 1
 C         0.069263         0.047992         0.204430
 C         1.529432        -0.023883         0.030873
 C         2.008752        -1.176468        -0.868770
 C         3.251588        -1.326625         0.040902
 O         3.885589        -2.631030        -0.065131
 C         3.775889         0.098733         0.480190
 O         3.524970         1.283348        -0.289804
 C         2.082318         1.283277        -0.444451
 C         2.493050        -0.465542         1.141672
 H        -0.230684         0.681011         1.020566
 H        -0.357779         0.578491        -0.762438
 H        -0.401790        -0.965164         0.356416
 H         1.438304        -2.077489        -0.642163
 H         2.112671        -1.089522        -2.055521
 H         4.836754        -2.619994        -0.294713
 H         4.675079         0.182144         1.176763
 H         1.698881         2.050208         0.221143
 H         2.011234         1.510598        -1.515566
 H         2.259242        -0.742269         2.116686
