19
Iteration:  1390
 C        -0.025758         0.361204         0.312288
 C         1.474567        -0.036330         0.042324
 C         2.043993        -1.232788        -0.963395
 C         3.311379        -1.336415        -0.032119
 O         4.064534        -2.533975        -0.122534
 C         3.660960         0.000201         0.544884
 O         3.513289         1.144972        -0.249665
 C         2.126508         1.212849        -0.495121
 C         2.407414        -0.537811         1.195635
 H        -0.144109         1.257140         1.080611
 H        -0.485747         0.636090        -0.576505
 H        -0.435544        -0.562256         0.696005
 H         1.469880        -2.297779        -0.833958
 H         2.124917        -1.090689        -2.011989
 H         4.996551        -2.280216        -0.462505
 H         4.582912        -0.031903         1.096885
 H         1.732317         2.021800         0.085478
 H         2.028667         1.300928        -1.530131
 H         2.034021        -0.710869         2.117182
