19
Iteration:  2192
 C         0.004429        -0.056895         0.282528
 C         1.497539         0.053832         0.054243
 C         1.963949        -1.095199        -0.775872
 C         3.243982        -1.293709         0.003836
 O         3.883555        -2.535361        -0.102875
 C         3.776053        -0.007373         0.492479
 O         3.572671         1.202613        -0.259400
 C         2.126441         1.316445        -0.555546
 C         2.562580        -0.514173         1.126271
 H        -0.399156         0.609539         0.983318
 H        -0.431640         0.384065        -0.767286
 H        -0.465818        -1.054812         0.424011
 H         1.332617        -1.955824        -0.794837
 H         2.209584        -0.809154        -1.869632
 H         4.834148        -2.458163         0.110125
 H         4.869359         0.023859         0.941173
 H         1.733231         2.379349        -0.289666
 H         1.901135         1.239111        -1.649739
 H         2.154403        -0.675239         2.136723
