19
Iteration:  1127charge 0 multiplicity 1
 C         0.042104         0.065399         0.237798
 C         1.522952         0.016096         0.026847
 C         2.064611        -1.089491        -0.964164
 C         3.267882        -1.297776        -0.028454
 O         3.792352        -2.616583         0.030770
 C         3.766371         0.048081         0.504647
 O         3.553251         1.163609        -0.346508
 C         2.093354         1.343505        -0.381324
 C         2.550671        -0.500450         1.126566
 H        -0.343799         0.670817         1.116016
 H        -0.354405         0.465366        -0.624016
 H        -0.348198        -0.943528         0.417438
 H         1.419860        -2.038607        -0.819537
 H         2.290234        -1.125425        -1.985163
 H         4.618004        -2.618172        -0.444950
 H         4.656367         0.091343         1.134714
 H         1.701817         2.154200         0.279219
 H         1.727138         1.615921        -1.464905
 H         2.542301        -0.854709         2.140063
