19
Iteration:   728
 C         0.124576         0.033052         0.300345
 C         1.561887        -0.009571        -0.023121
 C         2.084137        -1.104699        -0.986377
 C         3.212195        -1.364267         0.011675
 O         3.760813        -2.631579         0.020791
 C         3.779616         0.041017         0.443868
 O         3.534777         1.231682        -0.357061
 C         2.050751         1.346463        -0.382170
 C         2.555487        -0.459880         1.123530
 H        -0.131899         0.753429         1.019170
 H        -0.244790         0.269587        -0.733964
 H        -0.222310        -0.951158         0.440039
 H         1.500615        -1.938174        -1.091296
 H         2.385528        -0.773000        -1.999223
 H         4.236507        -2.815746         0.840741
 H         4.781469         0.158878         0.947605
 H         1.767176         2.086929         0.340727
 H         1.627187         1.685138        -1.418277
 H         2.280351        -0.670850         2.136379
