19
Iteration:  1460
 C         0.023626        -0.274556         0.298107
 C         1.498470         0.026684        -0.065654
 C         2.140519        -1.000393        -1.040237
 C         3.176865        -1.299011        -0.011700
 O         3.613095        -2.581779         0.297178
 C         3.868268         0.030746         0.276020
 O         3.586194         1.218544        -0.430021
 C         2.166918         1.467704        -0.231784
 C         2.590013        -0.449141         1.047616
 H        -0.315433         0.239823         1.153464
 H        -0.782496        -0.166568        -0.557220
 H         0.040538        -1.377799         0.497227
 H         1.519002        -1.798175        -1.239555
 H         2.474312        -0.578519        -2.065471
 H         4.192474        -2.894455        -0.508373
 H         4.889177         0.164061         0.712260
 H         2.082881         1.798734         0.693843
 H         1.777094         2.196055        -1.103813
 H         2.486612        -0.597457         2.236968
