19
Iteration:  2349
 C         0.011726         0.156806         0.364983
 C         1.451763        -0.086298         0.041675
 C         1.916922        -1.208424        -0.977202
 C         3.130879        -1.314467        -0.010226
 O         4.099763        -2.434073        -0.070932
 C         3.756972        -0.001071         0.436176
 O         3.561737         1.261163        -0.121048
 C         2.243053         1.207530        -0.628375
 C         2.428742        -0.560792         1.084015
 H        -0.055691         1.049544         1.014954
 H        -0.698455         0.251751        -0.532673
 H        -0.399728        -0.718517         0.941133
 H         1.260146        -2.109947        -0.933838
 H         2.078279        -0.909125        -2.085925
 H         4.373015        -2.450117         0.824488
 H         4.655586        -0.040752         0.999833
 H         1.680718         2.135820        -0.399019
 H         2.107507         1.232583        -1.727435
 H         2.277362        -0.797541         2.195625
