19
Iteration:  2230charge 0 multiplicity 1
 C         0.079342        -0.121324         0.367906
 C         1.519301        -0.006875        -0.076589
 C         2.175668        -1.066636        -1.065584
 C         3.202210        -1.359231        -0.052756
 O         3.734186        -2.581005         0.222176
 C         3.845931         0.044992         0.396658
 O         3.513891         1.236489        -0.288528
 C         2.040710         1.405859        -0.362242
 C         2.532604        -0.457929         0.949957
 H         0.039969         0.757981         1.160988
 H        -0.607232         0.085488        -0.391996
 H        -0.163156        -1.082336         0.865831
 H         1.518161        -1.976158        -1.178483
 H         2.504696        -0.762794        -2.012397
 H         4.565396        -2.778077        -0.354126
 H         4.766553        -0.108550         0.767472
 H         1.726588         1.918199         0.599651
 H         1.857081         2.048117        -1.303678
 H         2.202847        -0.660442         1.981215
