19
Iteration:  4010charge 0 multiplicity 1
 C         0.029130        -0.080802         0.452913
 C         1.505145         0.004689         0.017637
 C         2.152862        -1.079955        -0.972107
 C         3.227720        -1.307704        -0.017560
 O         3.809193        -2.528526         0.187100
 C         3.806304         0.070017         0.364369
 O         3.489139         1.105496        -0.527003
 C         2.093511         1.363253        -0.373288
 C         2.588044        -0.461966         1.013041
 H        -0.117450         0.777419         1.231068
 H        -0.721357        -0.016828        -0.350264
 H        -0.110543        -0.982895         0.906386
 H         1.583481        -1.940032        -1.193327
 H         2.394537        -0.624170        -2.002428
 H         3.650479        -3.226720        -0.443719
 H         4.798489         0.174738         0.893624
 H         2.014529         2.049808         0.600992
 H         1.707309         2.066329        -1.198530
 H         2.330887        -0.408303         2.128482
