19
Iteration:  2908
 C         0.013990         0.085125         0.392002
 C         1.534940         0.001910         0.069301
 C         2.036569        -1.184009        -0.903278
 C         3.186907        -1.317390         0.045683
 O         4.036143        -2.485263        -0.037099
 C         3.769537        -0.003999         0.402982
 O         3.532881         1.211154        -0.322225
 C         2.056330         1.252010        -0.578123
 C         2.543010        -0.473366         1.117921
 H        -0.067473         0.828487         1.166095
 H        -0.649481         0.297481        -0.547169
 H        -0.405611        -0.841937         0.777029
 H         1.365009        -2.011714        -0.692509
 H         2.189346        -1.026187        -2.028438
 H         3.362091        -3.104657         0.278356
 H         4.704907        -0.059232         0.881672
 H         1.629903         2.223936        -0.147217
 H         1.811186         1.362905        -1.673091
 H         2.408970        -0.408954         2.133176
