19
Iteration:  4239charge 0 multiplicity 1
 C         0.096618        -0.032440         0.389879
 C         1.523412         0.013118        -0.057394
 C         2.019115        -1.191637        -0.965693
 C         3.237798        -1.358156        -0.057230
 O         3.832851        -2.540957         0.197892
 C         3.793357         0.030708         0.375977
 O         3.518538         1.240684        -0.403729
 C         2.067633         1.386417        -0.388828
 C         2.556314        -0.451220         1.031019
 H         0.264374         0.626117         1.340074
 H        -0.715042         0.263180        -0.241044
 H        -0.143135        -0.970826         0.766056
 H         1.468451        -2.038766        -0.917348
 H         2.245998        -0.998072        -2.117049
 H         4.022865        -2.949814        -0.691411
 H         4.750605        -0.014864         0.933931
 H         1.791427         2.099882         0.458356
 H         1.704970         1.876198        -1.288976
 H         2.590169        -0.652650         2.075738
