19
Iteration:  3787
 C        -0.026176        -0.022619         0.412241
 C         1.482458         0.002916         0.068767
 C         1.978467        -1.073474        -1.040962
 C         3.187238        -1.346409        -0.020516
 O         4.017091        -2.425570         0.138036
 C         3.788722        -0.019540         0.297287
 O         3.596509         1.136999        -0.411240
 C         2.133876         1.311599        -0.410183
 C         2.527898        -0.482184         1.070969
 H        -0.298886         0.749186         1.280764
 H        -0.611457         0.301883        -0.443770
 H        -0.349864        -1.081476         0.725878
 H         1.264492        -1.864388        -0.928957
 H         2.216261        -0.543384        -2.066697
 H         3.363699        -3.123924         0.498294
 H         4.691990         0.056269         0.826791
 H         1.998031         2.170485         0.242470
 H         1.925482         1.497356        -1.442401
 H         2.261328        -0.791562         2.100987
