19
Iteration:  4067
 C         0.023113        -0.030486         0.353193
 C         1.518490         0.016967         0.037424
 C         1.941585        -1.212069        -0.909661
 C         3.170562        -1.368753        -0.036993
 O         3.900368        -2.525899         0.076507
 C         3.804709         0.014630         0.333975
 O         3.568338         1.202382        -0.439104
 C         2.123621         1.368982        -0.381516
 C         2.545105        -0.396261         1.095034
 H        -0.056826         0.682861         1.162793
 H        -0.698488         0.318702        -0.431490
 H        -0.260958        -0.960130         0.836329
 H         1.237121        -2.077570        -0.608812
 H         2.018815        -1.085867        -1.961465
 H         4.854385        -2.412803        -0.058869
 H         4.750070        -0.081030         0.912453
 H         2.054011         2.213099         0.359941
 H         1.818820         1.675272        -1.482725
 H         2.392259        -0.618135         2.127497
