19
Iteration:   363charge 0 multiplicity 1
 C         0.104285        -0.084641         0.273543
 C         1.550031         0.085093        -0.030081
 C         1.984861        -1.073086        -1.074970
 C         3.168817        -1.337213        -0.126643
 O         3.820020        -2.476691         0.290248
 C         3.800269        -0.043563         0.412653
 O         3.553436         1.164034        -0.343398
 C         2.174497         1.478493        -0.316060
 C         2.540289        -0.561570         1.053341
 H        -0.382850         0.386367         1.133940
 H        -0.332918         0.069007        -0.658572
 H        -0.006847        -1.251431         0.488784
 H         1.132516        -1.827448        -1.072441
 H         2.157054        -0.760118        -2.109793
 H         4.153972        -3.021681        -0.499531
 H         4.824442        -0.066557         0.830094
 H         1.812248         2.189861         0.529614
 H         1.744064         1.771696        -1.219774
 H         2.185523        -0.847807         2.092270
