19
Iteration:  2933
 C         0.036851         0.182593         0.512720
 C         1.453269        -0.034764        -0.010881
 C         1.874995        -1.262833        -0.934424
 C         3.167000        -1.290827        -0.097741
 O         4.170856        -2.365098         0.006357
 C         3.675965         0.008277         0.508230
 O         3.546823         1.195321        -0.227275
 C         2.184033         1.207646        -0.676883
 C         2.518787        -0.555389         1.018936
 H         0.037199         1.182323         1.107710
 H        -0.566595         0.262881        -0.256035
 H        -0.336113        -0.599132         1.228635
 H         1.259396        -2.265744        -0.861197
 H         1.972097        -1.000106        -1.896054
 H         3.546224        -2.990866         0.517064
 H         4.717592        -0.169276         0.909096
 H         1.713382         2.179797        -0.407340
 H         2.176130         1.120686        -1.784570
 H         2.215134        -0.858487         2.093000
