19
Iteration:  2144
 C         0.064721         0.270300         0.259645
 C         1.464749        -0.047961        -0.035387
 C         2.021408        -1.234989        -0.893910
 C         3.247014        -1.336629         0.049801
 O         4.117047        -2.437266        -0.101338
 C         3.718128        -0.058098         0.492636
 O         3.474885         1.093469        -0.358537
 C         2.098233         1.336200        -0.413916
 C         2.381328        -0.602102         1.116064
 H         0.174643         1.172442         1.037770
 H        -0.624834         0.582164        -0.409157
 H        -0.399138        -0.469470         0.852220
 H         1.375253        -2.201790        -0.486767
 H         2.027070        -1.273630        -1.964714
 H         4.986532        -2.136247         0.190956
 H         4.564318         0.101582         1.021762
 H         1.729143         2.009506         0.306041
 H         1.763253         1.777013        -1.295154
 H         2.125153        -0.795362         2.152094
