19
Iteration:  3427charge 0 multiplicity 1
 C         0.030323        -0.029032         0.432629
 C         1.468644         0.035985        -0.075372
 C         2.051604        -1.204827        -1.030791
 C         3.174125        -1.331803        -0.065739
 O         3.953586        -2.475910         0.202654
 C         3.792186         0.018037         0.383458
 O         3.507208         1.156709        -0.443375
 C         2.166299         1.449174        -0.333170
 C         2.538345        -0.480001         0.969956
 H        -0.150400         0.689275         1.396793
 H        -0.723999         0.121422        -0.288779
 H        -0.119841        -1.090087         0.744948
 H         1.431264        -2.180679        -1.210444
 H         2.355572        -0.887989        -2.096859
 H         3.444029        -3.222583         0.516524
 H         4.695432        -0.112025         0.894880
 H         1.907440         2.024352         0.634339
 H         1.893418         2.049949        -1.192027
 H         2.377707        -0.574649         2.029827
