19
Iteration:   675
 C        -0.065184        -0.064840         0.279497
 C         1.460276         0.006158        -0.064449
 C         1.988367        -1.076300        -0.999533
 C         3.194906        -1.305120        -0.057747
 O         3.819033        -2.471915         0.114257
 C         3.789532        -0.011245         0.485169
 O         3.651151         1.077407        -0.408043
 C         2.249367         1.383955        -0.302521
 C         2.493165        -0.483984         1.069488
 H        -0.099478         0.610222         1.136487
 H        -0.759985         0.355104        -0.514817
 H        -0.254630        -1.063912         0.463310
 H         1.355083        -1.885456        -0.888784
 H         2.120705        -0.918608        -2.097345
 H         4.774234        -2.362754         0.172802
 H         4.749572         0.075905         1.088363
 H         2.172016         2.168968         0.520620
 H         1.941426         1.810966        -1.250214
 H         2.286474        -0.671895         2.104742
