19
Iteration:  1268charge 0 multiplicity 1
 C        -0.006064        -0.163561         0.273863
 C         1.529713         0.042506        -0.007521
 C         2.076759        -0.911532        -1.114668
 C         3.191295        -1.362948        -0.127247
 O         3.803760        -2.524745         0.351407
 C         3.781226        -0.036030         0.345231
 O         3.574695         1.133892        -0.447416
 C         2.144889         1.493751        -0.174984
 C         2.541252        -0.524306         1.004595
 H        -0.272498         0.409809         1.172425
 H        -0.569825         0.085186        -0.587312
 H        -0.140682        -1.252591         0.621137
 H         1.259209        -1.750618        -1.353908
 H         2.353397        -0.508167        -2.057821
 H         4.364108        -2.996847        -0.280528
 H         4.743203        -0.094139         0.889781
 H         2.141670         2.101116         0.700947
 H         1.688276         2.031380        -1.061128
 H         2.403387        -1.028202         2.062116
