19
Iteration:   910
 C         0.136233        -0.013534         0.353709
 C         1.565230        -0.029304         0.000869
 C         2.183558        -1.033574        -1.061043
 C         3.283419        -1.312601         0.006865
 O         3.570815        -2.634125         0.071216
 C         3.810579         0.071060         0.505203
 O         3.521965         1.216637        -0.380988
 C         2.065342         1.337379        -0.372470
 C         2.539847        -0.497144         1.070503
 H        -0.083877         0.988419         0.922447
 H        -0.620352        -0.017991        -0.495531
 H        -0.155607        -1.019001         0.800078
 H         1.749097        -2.011784        -1.334663
 H         2.562810        -0.460166        -1.951032
 H         4.517006        -2.871929        -0.154496
 H         4.718265         0.202072         1.125545
 H         1.542618         2.095643         0.362317
 H         1.925872         1.656752        -1.374068
 H         2.474666        -0.956433         1.971420
