19
Iteration:  1391
 C        -0.034069         0.355631         0.322943
 C         1.478074        -0.043501         0.046694
 C         2.047746        -1.226804        -0.975504
 C         3.305358        -1.333617        -0.030786
 O         4.060968        -2.536654        -0.117074
 C         3.665581         0.002297         0.534693
 O         3.520044         1.140837        -0.249564
 C         2.121763         1.211519        -0.488530
 C         2.407555        -0.530370         1.195596
 H        -0.123767         1.259009         1.078333
 H        -0.512059         0.607348        -0.585849
 H        -0.438529        -0.547671         0.658757
 H         1.491074        -2.288945        -0.857225
 H         2.152145        -1.051896        -2.026127
 H         4.966700        -2.271503        -0.447838
 H         4.598831        -0.020046         1.126000
 H         1.742519         1.983394         0.063588
 H         2.025165         1.321279        -1.574003
 H         2.035214        -0.691129         2.129893
