19
Iteration:  2746
 C        -0.023845         0.244551         0.315281
 C         1.435043        -0.111867         0.063165
 C         1.813324        -1.264190        -0.803688
 C         3.134895        -1.349937         0.044579
 O         4.246620        -2.336591        -0.163101
 C         3.772069        -0.016422         0.422222
 O         3.569926         1.161756        -0.300751
 C         2.134355         1.228805        -0.530907
 C         2.489485        -0.515843         1.153933
 H        -0.150288         1.187837         1.030792
 H        -0.394788         0.529109        -0.604912
 H        -0.685798        -0.588795         0.548590
 H         1.128084        -2.210998        -0.613329
 H         1.909368        -1.076994        -1.825898
 H         3.999344        -3.176348         0.371939
 H         4.789418        -0.075875         0.928312
 H         1.753584         2.099338        -0.091445
 H         2.094095         1.425265        -1.582760
 H         2.575913        -0.698211         2.238581
