19
Iteration:  4909
 C        -0.013585        -0.009887         0.262314
 C         1.482659         0.053527         0.037810
 C         1.976983        -1.121793        -0.929664
 C         3.227693        -1.346165        -0.009789
 O         4.031691        -2.483023         0.039339
 C         3.802863        -0.057815         0.390867
 O         3.531173         1.105242        -0.452076
 C         2.132815         1.394899        -0.310310
 C         2.550288        -0.431797         1.114243
 H        -0.367049         0.528002         1.147661
 H        -0.620554         0.382575        -0.658015
 H        -0.583210        -1.056351         0.561879
 H         1.165854        -1.955529        -1.023982
 H         2.214706        -0.746464        -1.972552
 H         3.556639        -3.212399         0.442949
 H         4.664399        -0.011479         1.003646
 H         1.753099         2.167012         0.474714
 H         1.933726         1.867202        -1.238882
 H         2.509355        -0.494973         2.151290
