19
Iteration:  3996charge 0 multiplicity 1
 C         0.138973        -0.125637         0.456505
 C         1.542239         0.022488        -0.066533
 C         2.038179        -1.107561        -1.001636
 C         3.239695        -1.316031        -0.001567
 O         3.888258        -2.541742         0.154810
 C         3.756681         0.018345         0.394911
 O         3.510386         1.136866        -0.518095
 C         2.107631         1.445484        -0.369657
 C         2.477848        -0.391528         1.099724
 H        -0.081596         0.739764         1.242001
 H        -0.623503         0.110308        -0.271634
 H         0.019553        -1.155762         0.954580
 H         1.375914        -1.911560        -0.870580
 H         2.387350        -0.924121        -2.085322
 H         3.319049        -3.027495        -0.467853
 H         4.678709         0.030821         0.876561
 H         1.870031         2.215942         0.469215
 H         1.850158         1.712663        -1.347952
 H         2.351539        -0.662544         2.125751
