19
Iteration:  4785charge 0 multiplicity 1
 C        -0.074159        -0.046041         0.317627
 C         1.459109        -0.003233         0.043608
 C         2.021118        -1.041706        -0.965683
 C         3.265547        -1.292769        -0.007807
 O         3.944558        -2.486477        -0.008599
 C         3.808723         0.021605         0.454348
 O         3.602291         1.096460        -0.428967
 C         2.132165         1.361475        -0.372639
 C         2.536535        -0.523320         1.110384
 H        -0.440406         0.768963         1.085944
 H        -0.725704         0.046283        -0.573387
 H        -0.397603        -1.023251         0.690735
 H         1.275560        -1.745951        -1.126259
 H         2.230432        -0.758591        -2.033091
 H         3.690350        -2.920818         0.838365
 H         4.818253         0.030874         0.861947
 H         1.944058         2.148102         0.382893
 H         1.808719         1.695702        -1.396922
 H         2.404749        -0.520395         2.262256
