19
Iteration:  1447
 C         0.064800        -0.290230         0.293866
 C         1.526012         0.099010        -0.034757
 C         2.023677        -1.019183        -1.038903
 C         3.190250        -1.343967        -0.059172
 O         3.704749        -2.583092         0.253439
 C         3.812269         0.010046         0.380649
 O         3.579698         1.181148        -0.435132
 C         2.169555         1.490614        -0.229671
 C         2.570192        -0.429371         0.974589
 H        -0.225920         0.336531         1.178516
 H        -0.645729        -0.022404        -0.531635
 H        -0.026178        -1.321223         0.496039
 H         1.264434        -1.850853        -1.071109
 H         2.357246        -0.681589        -2.038725
 H         4.539575        -2.724985        -0.138906
 H         4.763479        -0.132399         1.028731
 H         1.959613         2.201881         0.548884
 H         1.905072         2.088893        -1.169493
 H         2.406850        -0.471071         2.122842
