19
Iteration:  1955
 C         0.022092         0.293925         0.247718
 C         1.494245        -0.018810         0.080774
 C         1.963114        -1.239479        -0.806824
 C         3.232588        -1.357077        -0.045203
 O         4.085366        -2.418836        -0.171602
 C         3.694654        -0.007718         0.544897
 O         3.534214         1.145253        -0.266231
 C         2.097440         1.149315        -0.543288
 C         2.435397        -0.555475         1.251744
 H         0.014533         1.048635         1.010448
 H        -0.388672         0.782831        -0.596453
 H        -0.654418        -0.613591         0.466473
 H         1.311395        -2.099928        -0.708161
 H         2.188445        -1.120441        -1.883443
 H         4.994876        -1.969819        -0.343157
 H         4.713162        -0.121895         0.981985
 H         1.566713         2.118245        -0.381842
 H         2.105152         1.100145        -1.600411
 H         2.099257        -0.733241         2.264113
