19
Iteration:  1946
 C        -0.021954         0.319832         0.277138
 C         1.441220        -0.087614         0.090185
 C         1.992413        -1.217102        -0.827912
 C         3.226546        -1.310843         0.021457
 O         4.075315        -2.425190        -0.173383
 C         3.695303        -0.090053         0.514367
 O         3.539606         1.186715        -0.225946
 C         2.144880         1.165036        -0.628257
 C         2.460529        -0.533005         1.190166
 H        -0.343381         1.007230         1.179071
 H        -0.476228         0.613686        -0.620128
 H        -0.655306        -0.601770         0.577240
 H         1.415796        -2.217409        -0.816851
 H         2.119515        -0.863697        -1.780229
 H         5.077258        -2.220892        -0.199973
 H         4.762125        -0.065138         0.987272
 H         1.691924         2.128924        -0.278181
 H         2.061758         0.945036        -1.621027
 H         2.377997        -0.672677         2.275485
