19
Iteration:  3420
 C         0.048341        -0.040763         0.439755
 C         1.525875         0.038412        -0.080829
 C         2.013565        -1.222810        -1.055329
 C         3.177319        -1.382848        -0.027812
 O         3.987885        -2.477283         0.168474
 C         3.771769        -0.000661         0.368336
 O         3.546425         1.214261        -0.391982
 C         2.120262         1.466526        -0.398490
 C         2.495879        -0.484587         1.013031
 H        -0.063157         0.629489         1.199248
 H        -0.707578         0.222042        -0.418637
 H        -0.111180        -0.959091         0.924347
 H         1.338765        -2.137765        -0.917715
 H         2.092612        -0.913542        -2.069818
 H         3.333000        -3.211946         0.432440
 H         4.806900        -0.143059         0.947558
 H         1.791620         1.999377         0.513495
 H         1.900902         2.043825        -1.271494
 H         2.378240        -0.599975         2.082404
