19
Iteration:  3902
 C        -0.011708         0.162068         0.421623
 C         1.429924        -0.009348        -0.020878
 C         2.028777        -1.283141        -0.902512
 C         3.198155        -1.373123         0.000601
 O         4.041166        -2.478213        -0.051036
 C         3.782406        -0.001396         0.392207
 O         3.520627         1.184387        -0.374594
 C         2.124575         1.316353        -0.409624
 C         2.533051        -0.470098         1.057786
 H        -0.206699         0.996165         1.163598
 H        -0.630032         0.600274        -0.457325
 H        -0.417428        -0.798848         0.666535
 H         1.213101        -2.086221        -0.793806
 H         2.258669        -1.039060        -1.917366
 H         4.286301        -2.896813         0.843393
 H         4.686412        -0.059418         0.901485
 H         1.811251         2.030125         0.230564
 H         1.857904         1.510758        -1.500745
 H         2.272685        -0.457865         2.150905
