19
Iteration:   491
 C         0.133408         0.011606         0.265543
 C         1.565936         0.033333         0.017188
 C         2.000931        -1.139418        -0.971472
 C         3.174107        -1.408538         0.001612
 O         3.833310        -2.731440         0.009490
 C         3.766082         0.037759         0.387157
 O         3.528120         1.342608        -0.237166
 C         2.114243         1.378538        -0.423979
 C         2.580474        -0.433817         1.069742
 H        -0.158638         0.974573         0.917468
 H        -0.605618         0.092604        -0.627613
 H        -0.228234        -0.865786         0.684135
 H         1.189197        -1.838733        -0.898161
 H         2.195875        -0.987419        -2.090198
 H         4.442381        -2.791296         0.716216
 H         4.682810         0.049049         1.016717
 H         1.561070         2.134175         0.179436
 H         1.968803         1.544897        -1.592339
 H         2.285902        -0.651090         2.144085
