19
Iteration:  1870
 C         0.007949        -0.164977         0.356757
 C         1.495800         0.033585         0.043299
 C         2.191193        -0.942700        -1.055942
 C         3.183735        -1.298787        -0.010137
 O         3.756328        -2.680689         0.183927
 C         3.825361         0.004554         0.299688
 O         3.542829         1.198781        -0.495137
 C         2.097273         1.393030        -0.350510
 C         2.535613        -0.445416         1.088098
 H        -0.471549         0.545329         1.208799
 H        -0.588132         0.000093        -0.494825
 H        -0.104867        -1.231974         0.754052
 H         1.577588        -1.916650        -1.353393
 H         2.619420        -0.397006        -1.854696
 H         4.442722        -2.584826         0.841675
 H         4.775341         0.179479         0.872919
 H         1.908314         1.975071         0.619855
 H         1.753568         2.057673        -1.231319
 H         2.388866        -0.678314         2.109248
