19
Iteration:  3056
 C         0.046036        -0.110753         0.410924
 C         1.541505         0.029158        -0.021729
 C         2.050871        -1.002841        -1.144292
 C         3.153657        -1.391304        -0.063018
 O         3.946500        -2.494067         0.307129
 C         3.822160        -0.063279         0.354513
 O         3.473757         1.193518        -0.547660
 C         2.112949         1.454954        -0.239580
 C         2.550253        -0.492091         0.998812
 H        -0.197269         0.616673         1.199155
 H        -0.679631        -0.103974        -0.377135
 H        -0.024830        -1.121988         0.859267
 H         1.268609        -1.806593        -1.284311
 H         2.456634        -0.647072        -2.090156
 H         3.338379        -3.236758         0.644159
 H         4.757288        -0.206550         0.817492
 H         1.962480         2.136255         0.628811
 H         1.697653         1.953364        -1.164131
 H         2.508591        -0.660970         2.018375
