19
Iteration:  2747charge 0 multiplicity 1
 C        -0.025366         0.241715         0.316223
 C         1.441117        -0.103227         0.058447
 C         1.805576        -1.265656        -0.800106
 C         3.135520        -1.347133         0.046882
 O         4.245367        -2.339782        -0.166961
 C         3.773711        -0.026664         0.417689
 O         3.569681         1.170503        -0.293713
 C         2.137008         1.225002        -0.535302
 C         2.496277        -0.513045         1.162112
 H        -0.168963         1.202725         1.037626
 H        -0.382796         0.521862        -0.598362
 H        -0.709030        -0.612764         0.539426
 H         1.135962        -2.245305        -0.623460
 H         1.955918        -1.081204        -1.823607
 H         3.989772        -3.158817         0.368280
 H         4.767893        -0.073559         0.917555
 H         1.743160         2.126493        -0.101898
 H         2.070728         1.384288        -1.589697
 H         2.538555        -0.688671         2.207340
