19
Iteration:  4343charge 0 multiplicity 1
 C         0.044534         0.027042         0.428113
 C         1.507557         0.054587         0.017987
 C         1.989739        -1.128904        -0.901804
 C         3.220524        -1.334391        -0.061535
 O         3.967897        -2.506094         0.002758
 C         3.717027        -0.023191         0.420172
 O         3.554394         1.063835        -0.466658
 C         2.068165         1.370400        -0.407562
 C         2.519741        -0.424148         1.113167
 H        -0.265853         0.868225         1.024778
 H        -0.628086         0.232782        -0.515194
 H        -0.178473        -1.011889         0.970042
 H         1.122978        -1.941829        -0.844633
 H         2.239012        -1.007834        -1.947581
 H         4.824721        -2.281274         0.499949
 H         4.686353        -0.116064         0.997469
 H         1.885808         2.252367         0.203890
 H         1.952986         1.565457        -1.413666
 H         2.332932        -0.788857         2.093443
