19
Iteration:  4302
 C         0.000442         0.168502         0.385526
 C         1.448502        -0.044503         0.077173
 C         2.014153        -1.183748        -0.914729
 C         3.218211        -1.276475        -0.007722
 O         3.998245        -2.512416        -0.050917
 C         3.805921        -0.005796         0.492277
 O         3.522017         1.097736        -0.393911
 C         2.110772         1.257847        -0.494535
 C         2.475844        -0.432115         1.139009
 H        -0.126192         0.900831         1.201466
 H        -0.577321         0.396358        -0.515518
 H        -0.413880        -0.688817         0.871085
 H         1.511659        -2.174863        -0.765467
 H         2.134060        -0.908955        -1.954937
 H         4.855259        -2.362574        -0.481310
 H         4.804525         0.089019         0.999910
 H         1.765122         2.150992         0.045777
 H         1.666718         1.354923        -1.576548
 H         2.306500        -0.736260         2.125538
