19
Iteration:  1461charge 0 multiplicity 1
 C         0.024002        -0.267937         0.304394
 C         1.493672         0.027675        -0.054202
 C         2.153430        -1.001856        -1.056506
 C         3.181100        -1.297428        -0.003852
 O         3.608211        -2.583910         0.298730
 C         3.870067         0.033521         0.272492
 O         3.584837         1.222591        -0.431231
 C         2.163323         1.459388        -0.237095
 C         2.589852        -0.446524         1.057333
 H        -0.319075         0.263529         1.134835
 H        -0.760907        -0.174655        -0.571495
 H         0.047845        -1.412499         0.472743
 H         1.537081        -1.798200        -1.249882
 H         2.486763        -0.580535        -2.081668
 H         4.139295        -2.899064        -0.527432
 H         4.862100         0.159033         0.677552
 H         2.096040         1.780747         0.710801
 H         1.757560         2.186323        -1.084949
 H         2.488226        -0.626635         2.211927
