19
Iteration:  1005
 C         0.045712         0.212767         0.285388
 C         1.510838         0.018545         0.033835
 C         2.103023        -1.080118        -0.908815
 C         3.275322        -1.396858         0.007504
 O         3.946198        -2.627071        -0.096400
 C         3.723685        -0.046935         0.540020
 O         3.508798         1.179959        -0.315553
 C         2.076343         1.337141        -0.477636
 C         2.439910        -0.580878         1.169595
 H        -0.116075         0.963099         1.114571
 H        -0.313320         0.586138        -0.598749
 H        -0.635019        -0.686086         0.437780
 H         1.326524        -1.979368        -1.029618
 H         2.333518        -0.736902        -1.876509
 H         4.872807        -2.450574        -0.057944
 H         4.658060        -0.051390         1.154740
 H         1.809013         2.323653        -0.070611
 H         1.682004         1.302646        -1.581290
 H         2.141545        -0.496886         2.258787
