19
Iteration:   123
 C         0.092961         0.078483         0.257756
 C         1.547060         0.025042         0.078862
 C         2.183777        -1.028934        -1.023179
 C         3.197398        -1.382217         0.008549
 O         3.842816        -2.662653         0.205148
 C         3.766454        -0.012399         0.437062
 O         3.442250         1.152780        -0.504950
 C         2.027262         1.433670        -0.314077
 C         2.523858        -0.525890         1.115961
 H        -0.254602         0.707610         0.966909
 H        -0.329031         0.413763        -0.635751
 H        -0.334946        -1.010511         0.305413
 H         1.561107        -1.892058        -1.409281
 H         2.513255        -0.461603        -1.833823
 H         4.415134        -2.671976        -0.643277
 H         4.806742        -0.003845         0.952603
 H         1.788322         2.152792         0.434803
 H         1.774112         1.785342        -1.309286
 H         2.562825        -0.727643         2.202641
