19
Iteration:  4513charge 0 multiplicity 1
 C         0.028775         0.067891         0.325308
 C         1.466191         0.018373         0.134549
 C         1.939275        -1.137144        -0.882474
 C         3.215983        -1.286021        -0.093223
 O         3.959640        -2.465501         0.098968
 C         3.770289         0.038783         0.361865
 O         3.556458         1.153350        -0.415835
 C         2.108869         1.309585        -0.421940
 C         2.595176        -0.581625         1.151044
 H        -0.294090         0.870488         1.079031
 H        -0.411137         0.150740        -0.637093
 H        -0.347633        -0.847777         0.696529
 H         1.365525        -2.007731        -0.885431
 H         2.189412        -0.905810        -1.954468
 H         4.048200        -2.985591        -0.764848
 H         4.792247         0.084368         0.861806
 H         1.694976         2.182121         0.083463
 H         1.820707         1.368363        -1.540980
 H         2.530037        -0.874105         2.194708
