19
Iteration:  1743charge 0 multiplicity 1
 C         0.025315         0.252729         0.381622
 C         1.441837        -0.022195        -0.063252
 C         1.897014        -1.241686        -0.851416
 C         3.214682        -1.323577        -0.021408
 O         4.149795        -2.451737        -0.022493
 C         3.743693        -0.063383         0.460516
 O         3.545160         1.229433        -0.095665
 C         2.152472         1.238325        -0.673154
 C         2.403933        -0.572970         1.091410
 H         0.065858         1.128378         1.034063
 H        -0.733781         0.390237        -0.524785
 H        -0.365073        -0.623231         0.876060
 H         1.404815        -2.110501        -0.550498
 H         1.882093        -1.175579        -1.969536
 H         4.497504        -2.597381        -0.974047
 H         4.697110        -0.087868         1.144864
 H         1.734163         2.288049        -0.442750
 H         2.208454         1.038920        -1.730636
 H         2.084766        -0.704565         2.104487
