19
Iteration:  1007charge 0 multiplicity 1
 C         0.067302         0.209008         0.277718
 C         1.525626         0.024121         0.037678
 C         2.084818        -1.064424        -0.910783
 C         3.283052        -1.392958        -0.001514
 O         3.934239        -2.642470        -0.083074
 C         3.730464        -0.043973         0.543107
 O         3.495881         1.190311        -0.312984
 C         2.063826         1.339908        -0.492986
 C         2.441189        -0.599849         1.177975
 H        -0.156921         0.949361         1.196178
 H        -0.311245         0.540291        -0.641296
 H        -0.621403        -0.679329         0.486402
 H         1.341493        -1.973169        -1.065939
 H         2.363856        -0.748047        -1.921332
 H         4.920871        -2.453100        -0.091325
 H         4.601270        -0.019547         1.221075
 H         1.837467         2.322879        -0.119891
 H         1.703101         1.323716        -1.526757
 H         2.219894        -0.505944         2.184534
