19
Iteration:   172charge 0 multiplicity 1
 C         0.130072        -0.222659         0.337883
 C         1.596654         0.045201        -0.087381
 C         2.035345        -1.125738        -1.060795
 C         3.114778        -1.289662        -0.103259
 O         3.690011        -2.503915         0.233388
 C         3.796647         0.024921         0.401656
 O         3.635945         1.209374        -0.325711
 C         2.183460         1.453968        -0.322825
 C         2.461316        -0.455909         1.016318
 H        -0.171968         0.596549         1.188279
 H        -0.724956        -0.157791        -0.457427
 H         0.068283        -1.184335         0.735859
 H         1.244091        -1.888160        -0.921020
 H         2.254973        -1.056155        -2.216026
 H         4.410662        -2.729476        -0.320983
 H         4.770300        -0.101017         0.908067
 H         2.103580         2.050675         0.653287
 H         1.970335         1.962028        -1.373711
 H         2.172829        -0.740107         2.061468
