19
Iteration:  1731charge 0 multiplicity 1
 C         0.058649         0.173107         0.322090
 C         1.524562         0.035604        -0.018033
 C         1.897674        -1.240357        -0.853541
 C         3.217173        -1.382134        -0.075650
 O         4.074481        -2.426284         0.017692
 C         3.661447        -0.007458         0.502637
 O         3.503309         1.218441        -0.160992
 C         2.205636         1.236948        -0.599269
 C         2.502432        -0.567117         1.078425
 H        -0.268101         0.939677         1.100512
 H        -0.574427         0.448191        -0.619073
 H        -0.257553        -0.721076         0.764086
 H         1.138790        -1.970735        -0.548452
 H         1.931530        -1.214626        -1.961799
 H         4.238756        -2.685736        -0.878113
 H         4.655783        -0.131490         1.018712
 H         1.591263         2.116542        -0.267203
 H         2.209621         1.400807        -1.734955
 H         2.422379        -0.642448         2.107204
