19
Iteration:   107charge 0 multiplicity 1
 C         0.027602         0.106211         0.238763
 C         1.514398        -0.042195        -0.027143
 C         2.083647        -1.127374        -0.985309
 C         3.205401        -1.336102         0.079961
 O         3.871767        -2.567796         0.063091
 C         3.745998         0.038855         0.456707
 O         3.532684         1.125525        -0.400129
 C         2.112236         1.308208        -0.360070
 C         2.537053        -0.487932         1.145762
 H        -0.083950         0.752169         1.217591
 H        -0.471177         0.644564        -0.646394
 H        -0.494041        -0.749705         0.508155
 H         1.410441        -1.957561        -1.035883
 H         2.519271        -0.792696        -2.014032
 H         4.555711        -2.592150        -0.621384
 H         4.646117         0.208561         0.970965
 H         1.933544         1.987603         0.523969
 H         1.699295         1.699730        -1.317493
 H         2.232458        -0.455453         2.182662
