19
Iteration:  2081charge 0 multiplicity 1
 C         0.163763        -0.294758         0.335697
 C         1.581573         0.099345         0.035451
 C         2.046996        -1.073128        -1.082446
 C         3.181322        -1.323935        -0.046279
 O         3.704072        -2.583164         0.239699
 C         3.836582         0.036912         0.403609
 O         3.519788         1.233099        -0.399762
 C         2.092920         1.516485        -0.390900
 C         2.567577        -0.446799         1.081154
 H        -0.219587         0.234043         1.285014
 H        -0.433125         0.065273        -0.583577
 H         0.075778        -1.317678         0.537609
 H         1.493149        -2.021749        -1.120621
 H         2.387361        -0.800500        -2.067747
 H         3.868248        -3.067831        -0.616117
 H         4.736126         0.053497         0.883493
 H         1.996962         2.378147         0.421086
 H         1.689301         1.748139        -1.367479
 H         2.307774        -0.638713         2.118128
