19
Iteration:  3323
 C        -0.026251         0.213404         0.381475
 C         1.486034        -0.007414        -0.007949
 C         1.918037        -1.292972        -0.860388
 C         3.194921        -1.406464         0.008408
 O         4.173811        -2.339342        -0.003354
 C         3.739888        -0.050863         0.340554
 O         3.563754         1.141044        -0.353121
 C         2.167762         1.304239        -0.470810
 C         2.425609        -0.479733         1.140913
 H        -0.238370         0.841946         1.165297
 H        -0.608312         0.519218        -0.565620
 H        -0.333358        -0.800491         0.669896
 H         1.234680        -2.043616        -0.671807
 H         2.018476        -1.121952        -1.946642
 H         3.779040        -3.270576        -0.133561
 H         4.716348        -0.108039         0.922701
 H         1.838273         2.043462         0.188627
 H         1.750144         1.551617        -1.546587
 H         2.320249        -0.600533         2.190640
