19
Iteration:  2181charge 0 multiplicity 1
 C        -0.088692         0.073791         0.248768
 C         1.480309         0.010846         0.074427
 C         1.991004        -1.141116        -0.839875
 C         3.215118        -1.322485         0.000025
 O         3.980034        -2.442443        -0.150698
 C         3.801544        -0.060234         0.445789
 O         3.552051         1.133693        -0.251957
 C         2.142263         1.268274        -0.544654
 C         2.503080        -0.463076         1.233278
 H        -0.351346         0.693147         1.066077
 H        -0.667596         0.347014        -0.766752
 H        -0.364478        -0.984885         0.461625
 H         1.366072        -1.994270        -0.649176
 H         2.023859        -0.901876        -1.959851
 H         4.799217        -2.288767         0.267054
 H         4.823685        -0.107160         1.029823
 H         1.821153         2.316959        -0.141655
 H         2.130685         1.236140        -1.664238
 H         2.505708        -0.574456         2.343576
