19
Iteration:  3570
 C         0.008790         0.203553         0.364974
 C         1.509898        -0.036129         0.031769
 C         2.009533        -1.227717        -0.845145
 C         3.208132        -1.359890        -0.029654
 O         4.086319        -2.403143        -0.043674
 C         3.719393         0.021070         0.447157
 O         3.523902         1.142950        -0.331366
 C         2.097563         1.248552        -0.529284
 C         2.492784        -0.537409         1.080103
 H         0.100430         1.275326         0.934327
 H        -0.668641         0.301424        -0.435734
 H        -0.264627        -0.648352         0.923298
 H         1.284973        -2.103254        -0.727518
 H         2.206535        -1.151513        -1.923575
 H         3.638261        -3.168684         0.365498
 H         4.722138        -0.007723         0.959113
 H         1.793886         2.148969         0.110241
 H         1.864684         1.652844        -1.605581
 H         2.151535        -0.684846         2.113897
