19
Iteration:  2977charge 0 multiplicity 1
 C         0.032064         0.198054         0.396512
 C         1.511742        -0.053599         0.038319
 C         1.945354        -1.277414        -0.936266
 C         3.231021        -1.371732        -0.046054
 O         4.094447        -2.437648        -0.010184
 C         3.757611         0.001420         0.430270
 O         3.521360         1.250170        -0.229740
 C         2.052139         1.240108        -0.643373
 C         2.515453        -0.491679         1.154871
 H        -0.042191         1.067210         1.159392
 H        -0.476826         0.435927        -0.428995
 H        -0.451244        -0.684914         0.879405
 H         1.181019        -2.101904        -0.640100
 H         2.011662        -1.215507        -1.949932
 H         3.685646        -3.347768        -0.187675
 H         4.819238         0.038454         0.859872
 H         1.703586         2.172649        -0.188984
 H         1.979557         1.343914        -1.738547
 H         2.338506        -0.451246         2.301933
