19
Iteration:  1151
 C         0.041434         0.083778         0.295866
 C         1.495027        -0.010853        -0.070819
 C         1.852768        -1.184844        -0.944587
 C         3.163798        -1.389572        -0.036083
 O         3.997259        -2.532774         0.048659
 C         3.759979        -0.096752         0.392905
 O         3.629289         1.260879        -0.185580
 C         2.180937         1.409950        -0.451119
 C         2.458307        -0.524165         1.062866
 H        -0.211655         0.793930         1.205168
 H        -0.527237         0.491388        -0.586246
 H        -0.293718        -0.854440         0.639005
 H         1.257356        -2.094968        -0.787641
 H         1.946210        -1.179622        -2.086647
 H         4.937175        -2.156667         0.033665
 H         4.742986        -0.215661         0.889312
 H         1.699707         2.234655         0.188310
 H         1.932870         1.687655        -1.525120
 H         2.204584        -0.614537         2.192373
