19
Iteration:  4777
 C        -0.114284        -0.062628         0.316924
 C         1.459646         0.063446         0.066828
 C         2.086448        -0.997379        -0.996721
 C         3.232539        -1.327797        -0.043556
 O         3.955427        -2.510357         0.009612
 C         3.820028        -0.003136         0.455606
 O         3.506466         1.098993        -0.474791
 C         2.159437         1.364310        -0.371874
 C         2.534105        -0.498324         1.178694
 H        -0.361068         0.695605         1.091558
 H        -0.570908         0.281569        -0.656087
 H        -0.168901        -1.165745         0.766557
 H         1.517279        -1.980045        -1.132317
 H         2.438223        -0.506899        -1.886434
 H         3.607279        -2.955460         0.844244
 H         4.868660        -0.155095         0.816515
 H         2.090514         2.265844         0.327382
 H         1.797255         1.538753        -1.336954
 H         2.394455        -0.703290         2.285757
