19
Iteration:  3624charge 0 multiplicity 1
 C         0.046587        -0.136646         0.301234
 C         1.516879         0.050345         0.106667
 C         2.077690        -0.997322        -1.037865
 C         3.187381        -1.355464         0.036031
 O         3.878032        -2.515557         0.209189
 C         3.864812        -0.046788         0.324637
 O         3.457498         1.129005        -0.556986
 C         2.075551         1.455039        -0.369397
 C         2.625419        -0.482545         1.151266
 H        -0.195145         0.292204         1.400397
 H        -0.533389         0.314722        -0.413335
 H        -0.169843        -1.197435         0.366047
 H         1.287210        -1.651347        -1.228287
 H         2.550987        -0.448250        -1.831240
 H         3.133443        -3.149068         0.044139
 H         4.820668         0.028132         0.842232
 H         1.854621         2.170024         0.409351
 H         1.664088         1.678611        -1.474788
 H         2.627322        -0.498069         2.254560
