19
Iteration:  1287
 C         0.077612        -0.070985         0.392229
 C         1.510841         0.014795        -0.089034
 C         2.179691        -0.976910        -1.145188
 C         3.188682        -1.333499         0.028304
 O         3.741025        -2.594141         0.222452
 C         3.818658         0.002048         0.370686
 O         3.508635         1.151373        -0.398582
 C         2.125988         1.360035        -0.274258
 C         2.476219        -0.506820         0.996892
 H        -0.179565         0.615023         1.162009
 H        -0.671055         0.054146        -0.516235
 H        -0.190226        -1.117103         0.840689
 H         1.620099        -1.845198        -1.530916
 H         2.697540        -0.399252        -2.008551
 H         4.507941        -2.502548        -0.312482
 H         4.795380         0.041363         0.917362
 H         1.846393         1.939389         0.721658
 H         1.779824         2.050064        -0.948474
 H         2.394828        -0.428400         2.094842
