19
Iteration:  1384
 C         0.026599         0.360911         0.284647
 C         1.457839        -0.014910         0.010918
 C         2.009413        -1.275413        -0.871232
 C         3.305598        -1.351406        -0.044018
 O         4.090418        -2.508743        -0.148499
 C         3.647874        -0.022717         0.593949
 O         3.494913         1.162047        -0.242993
 C         2.142568         1.238275        -0.494155
 C         2.414062        -0.570386         1.152776
 H        -0.143521         1.106916         0.997015
 H        -0.475311         0.771468        -0.685152
 H        -0.499498        -0.489324         0.785266
 H         1.436811        -2.103843        -0.691778
 H         2.056266        -1.186150        -2.023489
 H         4.964603        -2.342606        -0.450067
 H         4.664799        -0.040447         1.082399
 H         1.714716         2.168214         0.037653
 H         1.932335         1.310169        -1.667121
 H         2.075212        -0.830627         2.244324
