19
Iteration:  4955
 C         0.037140         0.030648         0.362652
 C         1.526111        -0.029854        -0.028241
 C         2.065239        -1.058858        -1.030308
 C         3.229998        -1.356539        -0.046498
 O         3.949079        -2.574332         0.123148
 C         3.781051         0.074716         0.366121
 O         3.489135         1.160650        -0.355333
 C         2.091403         1.331014        -0.349916
 C         2.556257        -0.459900         1.029203
 H        -0.260799         0.879714         1.045076
 H        -0.687694        -0.090352        -0.488931
 H        -0.208188        -0.895660         1.122383
 H         1.426764        -1.976941        -1.174888
 H         2.328236        -0.751830        -2.038184
 H         3.290205        -3.293988         0.399971
 H         4.800232         0.122472         0.845491
 H         1.891351         2.151833         0.441395
 H         1.711671         1.747219        -1.239709
 H         2.394701        -0.453870         2.118469
