19
Iteration:  3832charge 0 multiplicity 1
 C         0.110970        -0.164027         0.406590
 C         1.516807         0.009396        -0.006097
 C         2.125106        -1.093853        -1.013728
 C         3.183429        -1.337908        -0.004807
 O         3.748060        -2.696714         0.143179
 C         3.850107         0.077245         0.347181
 O         3.492205         1.298348        -0.517998
 C         2.098833         1.420349        -0.279982
 C         2.588806        -0.382416         0.975001
 H        -0.235660         0.782711         1.123134
 H        -0.584372        -0.057733        -0.386335
 H        -0.007864        -1.165834         0.833220
 H         1.566715        -1.998027        -1.008120
 H         2.686078        -0.617440        -1.994375
 H         3.362641        -3.112829         0.981277
 H         4.894745         0.079356         0.805958
 H         1.874299         1.958007         0.648359
 H         1.554786         1.723962        -1.202734
 H         2.490605        -0.367592         2.051188
