19
Iteration:  4314
 C        -0.012892         0.132321         0.445688
 C         1.466959        -0.067196        -0.024784
 C         2.055891        -1.210592        -0.878862
 C         3.228106        -1.367833         0.054211
 O         3.983784        -2.501840        -0.104391
 C         3.661929         0.039458         0.480214
 O         3.603784         1.109102        -0.450270
 C         2.068987         1.274387        -0.464424
 C         2.491187        -0.423892         1.175741
 H         0.037196         1.082909         1.045596
 H        -0.640522         0.396374        -0.356415
 H        -0.422458        -0.674113         0.916296
 H         1.352451        -1.978766        -1.019169
 H         2.463364        -0.951130        -1.870362
 H         4.828730        -2.163726        -0.366577
 H         4.532619        -0.035052         1.128505
 H         1.792641         2.079045         0.252597
 H         1.943996         1.595646        -1.589200
 H         2.324669        -0.403122         2.232001
