19
Iteration:  2490
 C         0.136983        -0.013552         0.443278
 C         1.577838        -0.003163        -0.019493
 C         2.022390        -1.109980        -1.101938
 C         3.159739        -1.335516        -0.070470
 O         3.945283        -2.558034         0.131570
 C         3.766308         0.013947         0.432224
 O         3.493526         1.224961        -0.345467
 C         2.073593         1.374186        -0.425697
 C         2.522781        -0.482125         1.035918
 H        -0.012524         0.764288         1.090682
 H        -0.708455         0.058085        -0.387734
 H        -0.124794        -0.934547         0.986283
 H         1.385587        -1.967282        -1.216129
 H         2.431962        -0.731131        -2.078608
 H         3.462387        -3.065871         0.820881
 H         4.787177        -0.075967         0.964830
 H         1.673105         2.249718         0.122435
 H         1.879931         1.686068        -1.499636
 H         2.231152        -0.782485         2.047312
