19
Iteration:    34charge 0 multiplicity 1
 C         0.022642         0.197141         0.383982
 C         1.509518        -0.067492        -0.041709
 C         2.081813        -1.256893        -0.985732
 C         3.250332        -1.300865        -0.067669
 O         3.847986        -2.585947         0.002262
 C         3.705862         0.055304         0.569922
 O         3.481524         1.241176        -0.174726
 C         2.167829         1.299613        -0.586034
 C         2.542145        -0.526648         1.074807
 H         0.022137         1.129832         0.921128
 H        -0.656138         0.327947        -0.452737
 H        -0.414431        -0.579285         1.067791
 H         1.509667        -2.189539        -0.880554
 H         2.230906        -0.986906        -2.019458
 H         4.819707        -2.655759        -0.318539
 H         4.720681        -0.001850         0.993031
 H         1.660335         2.188717        -0.238347
 H         2.188246         1.297172        -1.677316
 H         2.414967        -0.623781         2.157183
