19
Iteration:  1606charge 0 multiplicity 1
 C         0.116864         0.057868         0.325163
 C         1.538039        -0.018695         0.005785
 C         2.016355        -1.165286        -0.937215
 C         3.236020        -1.316447        -0.052995
 O         3.866002        -2.555182         0.067533
 C         3.721874         0.053542         0.472709
 O         3.512926         1.247827        -0.221572
 C         2.141180         1.353329        -0.515501
 C         2.520470        -0.571356         1.079563
 H        -0.199607         0.898771         1.028771
 H        -0.433458         0.298509        -0.558642
 H        -0.373592        -0.962871         0.614406
 H         1.393373        -2.121688        -0.802461
 H         2.066780        -0.902798        -2.027154
 H         4.278904        -2.751933        -0.750992
 H         4.757913        -0.006300         1.015835
 H         1.704185         2.237870        -0.053658
 H         1.866113         1.444511        -1.721982
 H         2.524008        -0.735572         2.158803
