19
Iteration:  2869charge 0 multiplicity 1
 C         0.000152        -0.137138         0.286253
 C         1.443551         0.076523         0.021410
 C         2.068042        -1.040420        -0.880846
 C         3.251211        -1.294308         0.017898
 O         3.904168        -2.489924         0.181306
 C         3.826901         0.022266         0.324061
 O         3.502752         1.077800        -0.605806
 C         2.100759         1.405558        -0.210803
 C         2.602995        -0.457048         1.060676
 H        -0.520479         0.503589         1.097663
 H        -0.385210         0.316258        -0.590490
 H        -0.316497        -1.217328         0.360946
 H         1.359832        -1.949362        -0.841504
 H         2.322250        -0.916128        -1.906405
 H         3.410811        -3.252206        -0.304549
 H         4.858637        -0.056270         0.743909
 H         2.142483         2.031891         0.654766
 H         1.680403         1.835421        -1.092365
 H         2.554585        -0.408742         2.200656
