19
Iteration:  3947charge 0 multiplicity 1
 C        -0.025617         0.135774         0.391357
 C         1.505348        -0.014812         0.119353
 C         1.956592        -1.166715        -0.947144
 C         3.189029        -1.346082        -0.046542
 O         4.010430        -2.452641        -0.026945
 C         3.822531         0.022608         0.397255
 O         3.554987         1.203073        -0.312662
 C         2.064238         1.247327        -0.549623
 C         2.596409        -0.537130         1.092863
 H        -0.336764         0.870181         1.065956
 H        -0.593040         0.562762        -0.506980
 H        -0.418520        -0.887268         0.716206
 H         1.386641        -2.200155        -0.687599
 H         2.032623        -0.924999        -1.960002
 H         3.885630        -2.851997         0.861674
 H         4.836208        -0.016977         0.897343
 H         1.744167         2.062906        -0.031593
 H         1.797567         1.249842        -1.655016
 H         2.461858        -0.763625         2.195120
