19
Iteration:  2414
 C         0.023016        -0.011761         0.267095
 C         1.538888        -0.030806         0.049762
 C         2.042255        -1.077341        -0.959351
 C         3.221684        -1.340946         0.071201
 O         3.894865        -2.576994         0.117670
 C         3.805588         0.041307         0.414786
 O         3.499860         1.194589        -0.406732
 C         2.055677         1.327050        -0.420085
 C         2.597450        -0.459912         1.148189
 H        -0.338404         0.645097         1.065755
 H        -0.466514         0.401378        -0.757898
 H        -0.444592        -1.021047         0.408108
 H         1.413739        -1.963400        -1.113494
 H         2.331148        -0.613008        -2.006850
 H         3.973995        -2.939053        -0.783299
 H         4.811863         0.183817         0.895877
 H         1.925069         2.272177         0.193038
 H         1.673790         1.597504        -1.436533
 H         2.528181        -0.624730         2.268733
