19
Iteration:  1553
 C         0.061485         0.243286         0.256856
 C         1.546142         0.007670         0.031786
 C         1.873532        -1.263893        -0.847457
 C         3.201158        -1.359144        -0.077732
 O         4.156048        -2.355445        -0.042613
 C         3.700508        -0.076232         0.549936
 O         3.546445         1.147288        -0.233857
 C         2.134987         1.285502        -0.531516
 C         2.423560        -0.561426         1.122786
 H        -0.101928         1.129638         1.065059
 H        -0.474732         0.602456        -0.607060
 H        -0.572482        -0.707762         0.558694
 H         1.061849        -2.058755        -0.492466
 H         1.786882        -1.227114        -1.897145
 H         4.319807        -2.800733        -0.837212
 H         4.752372        -0.117602         1.073217
 H         1.841874         2.213664        -0.015503
 H         2.021974         1.175130        -1.578228
 H         1.976770        -0.988566         2.061826
