19
Iteration:  3863charge 0 multiplicity 1
 C         0.090423        -0.168291         0.374415
 C         1.520474         0.069381         0.088804
 C         2.042023        -0.989261        -0.964803
 C         3.154403        -1.297541         0.013992
 O         3.833207        -2.546012         0.054913
 C         3.802871         0.037960         0.384140
 O         3.501701         1.097762        -0.477806
 C         2.150127         1.361590        -0.402983
 C         2.557866        -0.424009         1.058938
 H        -0.191229         0.410537         1.236157
 H        -0.440196         0.026730        -0.536041
 H        -0.147392        -1.178203         0.828686
 H         1.464642        -1.905234        -1.008805
 H         2.340610        -0.621006        -2.045618
 H         3.785717        -2.789301         0.977672
 H         4.847260         0.070069         0.789944
 H         1.988976         2.416808         0.125950
 H         1.787820         1.500866        -1.405483
 H         2.520839        -0.642267         2.122834
