19
Iteration:  2460charge 0 multiplicity 1
 C        -0.011687        -0.212802         0.316678
 C         1.546069         0.017813        -0.008670
 C         2.062959        -1.026784        -1.000874
 C         3.165900        -1.300871        -0.043634
 O         3.804853        -2.579330         0.163969
 C         3.800441         0.064349         0.358786
 O         3.529080         1.131198        -0.529018
 C         2.200250         1.432986        -0.248396
 C         2.527731        -0.418226         1.029603
 H        -0.211777         0.405409         1.362556
 H        -0.781326         0.102605        -0.445103
 H        -0.168577        -1.224468         0.590299
 H         1.368094        -1.989963        -1.256284
 H         2.533846        -0.638496        -1.952846
 H         4.424972        -2.501619         0.959547
 H         4.751415        -0.015533         1.001773
 H         1.983358         1.987322         0.733894
 H         1.974391         2.039185        -1.105987
 H         2.414187        -0.479772         2.054864
