19
Iteration:  2669
 C         0.126399        -0.319387         0.398093
 C         1.585079         0.092289         0.047844
 C         2.102640        -0.954390        -0.982354
 C         3.152900        -1.308297        -0.026107
 O         3.737419        -2.545807         0.192821
 C         3.828749         0.053446         0.306730
 O         3.514718         1.138883        -0.480628
 C         2.065429         1.431138        -0.415421
 C         2.656930        -0.410736         1.053267
 H        -0.293608         0.338663         1.347910
 H        -0.559697        -0.128174        -0.404364
 H         0.080318        -1.357893         0.695990
 H         1.453852        -1.953505        -0.978795
 H         2.326889        -0.656228        -1.981108
 H         3.012087        -3.068476         0.509848
 H         4.829332         0.176242         0.757402
 H         2.041627         2.371053         0.265020
 H         1.617660         1.643056        -1.397104
 H         2.379955        -0.663009         2.157363
