19
Iteration:  4549
 C         0.075328        -0.113932         0.499689
 C         1.529406         0.001544        -0.085442
 C         2.046077        -1.101985        -1.001499
 C         3.173110        -1.321207        -0.003302
 O         3.899514        -2.521699         0.132088
 C         3.737451         0.020391         0.368868
 O         3.596485         1.165911        -0.449851
 C         2.090607         1.368618        -0.371145
 C         2.481753        -0.385731         1.063862
 H        -0.118390         0.559591         1.321828
 H        -0.780918         0.282739        -0.142230
 H         0.028470        -1.250925         0.912934
 H         1.370490        -2.058290        -1.215969
 H         2.461543        -0.670650        -1.885441
 H         3.683032        -3.194653        -0.562157
 H         4.667266         0.024635         0.885019
 H         1.928697         2.083290         0.369726
 H         1.970966         1.841994        -1.428008
 H         2.386802        -0.341080         2.131657
