19
Iteration:  4204charge 0 multiplicity 1
 C         0.013273        -0.127040         0.421102
 C         1.458007         0.048489         0.053231
 C         2.118438        -0.958162        -1.027743
 C         3.189099        -1.302161         0.019117
 O         3.801832        -2.566961         0.184828
 C         3.796061        -0.002902         0.386567
 O         3.508465         1.058507        -0.542087
 C         2.087368         1.385271        -0.401734
 C         2.635678        -0.457240         1.099595
 H        -0.138435         0.656996         1.240796
 H        -0.732422         0.076274        -0.257758
 H        -0.052825        -1.061799         0.914306
 H         1.461530        -1.680462        -1.430803
 H         2.523720        -0.288573        -1.834469
 H         4.493874        -2.605934        -0.517149
 H         4.770047         0.048112         0.973027
 H         1.806910         2.192173         0.313524
 H         1.795919         1.582168        -1.510901
 H         2.660849        -0.631706         2.181115
