19
Iteration:  1752
 C        -0.027189         0.250465         0.412067
 C         1.444891        -0.075717        -0.003217
 C         1.934528        -1.316854        -0.913273
 C         3.194251        -1.337370        -0.060756
 O         4.134670        -2.459710        -0.033188
 C         3.707453        -0.000504         0.534237
 O         3.558394         1.248915        -0.100523
 C         2.204907         1.178163        -0.674361
 C         2.409704        -0.510968         1.085363
 H         0.069252         1.270239         0.945162
 H        -0.718471         0.621768        -0.367219
 H        -0.531267        -0.332619         1.100042
 H         1.339948        -2.314123        -0.777263
 H         2.067332        -1.058743        -1.976899
 H         4.544502        -2.263679        -0.958682
 H         4.705812        -0.053000         1.023383
 H         1.914381         2.198413        -0.568645
 H         2.110270         1.145854        -1.867330
 H         2.128125        -0.896730         1.997301
