19
Iteration:  1619charge 0 multiplicity 1
 C         0.055027        -0.085609         0.317103
 C         1.534891         0.064385        -0.023840
 C         1.996538        -1.079991        -0.959196
 C         3.220000        -1.313669        -0.086684
 O         3.822887        -2.569361         0.155065
 C         3.743085         0.010210         0.423486
 O         3.599404         1.256771        -0.302519
 C         2.149272         1.380304        -0.430179
 C         2.505377        -0.535282         1.033568
 H        -0.128767         0.523792         1.331021
 H        -0.698095         0.037642        -0.466132
 H         0.062605        -1.121666         0.752611
 H         1.206237        -1.947273        -0.860440
 H         2.167796        -0.861108        -1.998119
 H         4.588042        -2.709144        -0.505669
 H         4.625789         0.048279         1.067061
 H         1.813144         2.229257         0.201637
 H         2.028469         1.557374        -1.620738
 H         2.263161        -0.840288         2.127526
