19
Iteration:  2429charge 0 multiplicity 1
 C         0.030624        -0.118236         0.175112
 C         1.538056         0.060949         0.112204
 C         2.142461        -1.006121        -0.874783
 C         3.216300        -1.309905         0.010075
 O         3.775444        -2.576171         0.153752
 C         3.808611         0.033122         0.352495
 O         3.475147         1.110436        -0.520386
 C         2.080036         1.418547        -0.317191
 C         2.594977        -0.493009         1.132571
 H        -0.364471         0.378927         1.236423
 H        -0.428285         0.329955        -0.602584
 H        -0.160438        -1.154604         0.253027
 H         1.386616        -1.906470        -1.001819
 H         2.462508        -0.676660        -1.840068
 H         4.455638        -2.582592        -0.518364
 H         4.776540         0.056504         0.892213
 H         1.758030         2.149996         0.467259
 H         1.760880         1.591447        -1.314000
 H         2.541679        -0.566518         2.167620
