19
Iteration:  1629
 C         0.032401        -0.192886         0.399465
 C         1.485428         0.062295        -0.042955
 C         2.004376        -1.013464        -1.071083
 C         3.174695        -1.341859        -0.053971
 O         3.798266        -2.552779         0.202600
 C         3.829811        -0.022100         0.432031
 O         3.635196         1.209308        -0.333612
 C         2.147266         1.423459        -0.400254
 C         2.526499        -0.451459         0.997826
 H        -0.355962         0.518831         1.235100
 H        -0.661497        -0.018180        -0.405006
 H        -0.155567        -1.292579         0.620992
 H         1.288530        -1.937139        -0.987883
 H         2.245347        -0.886040        -2.126280
 H         4.695044        -2.547775        -0.250214
 H         4.832662        -0.094331         0.931563
 H         1.924323         2.181300         0.352130
 H         1.835517         1.884961        -1.494712
 H         2.146892        -0.683677         2.049349
