19
Iteration:   747charge 0 multiplicity 1
 C        -0.107112        -0.096333         0.331390
 C         1.470212         0.022500        -0.045375
 C         2.034965        -1.127317        -0.939338
 C         3.203194        -1.264979        -0.082314
 O         3.803189        -2.529519         0.026890
 C         3.820829         0.003020         0.437932
 O         3.678232         1.207469        -0.269764
 C         2.227442         1.365566        -0.438133
 C         2.526670        -0.492002         1.041434
 H        -0.302227         0.786668         0.970283
 H        -0.899963         0.173308        -0.414296
 H        -0.420365        -1.154500         0.650990
 H         1.445528        -2.075023        -0.731425
 H         2.129460        -0.970943        -2.041014
 H         4.160701        -2.672645         0.868810
 H         4.755023         0.007925         1.030290
 H         1.875739         2.157795         0.192775
 H         2.096251         1.664681        -1.531183
 H         2.483168        -0.494021         2.174740
