19
Iteration:  3888charge 0 multiplicity 1
 C        -0.017941         0.017936         0.373287
 C         1.502773        -0.014497         0.040480
 C         1.941779        -1.112483        -0.926234
 C         3.176923        -1.324427         0.004181
 O         4.016481        -2.484996        -0.009269
 C         3.737735        -0.001570         0.392298
 O         3.586436         1.116984        -0.428906
 C         2.145196         1.359577        -0.472084
 C         2.510810        -0.477385         1.135442
 H        -0.073622         0.597865         1.395226
 H        -0.573739         0.330376        -0.471594
 H        -0.398979        -0.865062         0.794608
 H         1.380275        -2.037321        -0.851541
 H         2.172772        -0.799329        -2.074669
 H         4.146331        -2.720382         0.884609
 H         4.736285         0.000107         0.851498
 H         1.866004         2.224514         0.197300
 H         1.841752         1.672701        -1.519221
 H         2.429786        -0.687931         2.182845
