19
Iteration:  2701
 C        -0.026536         0.033349         0.395311
 C         1.518736         0.005068         0.010646
 C         2.069044        -1.105326        -0.975404
 C         3.204891        -1.386587         0.033939
 O         4.025006        -2.486033         0.110431
 C         3.712228         0.022947         0.376726
 O         3.509874         1.115775        -0.500871
 C         2.083828         1.345787        -0.384648
 C         2.594122        -0.474277         1.079510
 H         0.013037         0.906370         1.145230
 H        -0.769258         0.318765        -0.346342
 H        -0.407706        -0.817120         0.906382
 H         1.425854        -2.051763        -1.039764
 H         2.286563        -0.746748        -1.949408
 H         3.558690        -3.341584        -0.177883
 H         4.703321         0.168453         0.854470
 H         1.982313         2.061404         0.417791
 H         1.581218         1.762013        -1.258864
 H         2.337684        -0.434850         2.214237
