19
Iteration:  4147
 C        -0.022974         0.121371         0.385974
 C         1.509822        -0.009391         0.007766
 C         2.001462        -1.246234        -0.834900
 C         3.244346        -1.314779        -0.059178
 O         3.922762        -2.558880        -0.001366
 C         3.813750         0.040569         0.368014
 O         3.538243         1.205526        -0.377468
 C         2.084245         1.287541        -0.397060
 C         2.565198        -0.462222         1.031662
 H        -0.133868         0.916363         1.088929
 H        -0.615088         0.276423        -0.509697
 H        -0.596066        -0.784044         0.789572
 H         1.255119        -2.147471        -0.539874
 H         1.947978        -1.218907        -1.903167
 H         4.811090        -2.420724         0.433101
 H         4.821314        -0.126915         0.711172
 H         1.794403         2.183889         0.280632
 H         1.853824         1.835205        -1.475263
 H         2.274539        -0.669967         2.109022
