19
Iteration:  1945charge 0 multiplicity 1
 C        -0.033286         0.319869         0.285726
 C         1.436211        -0.093432         0.090197
 C         1.991754        -1.218428        -0.832944
 C         3.226626        -1.313256         0.028527
 O         4.073107        -2.427153        -0.172791
 C         3.700854        -0.088394         0.511277
 O         3.538273         1.188963        -0.219407
 C         2.155225         1.168323        -0.637551
 C         2.464986        -0.529791         1.184211
 H        -0.337341         0.987425         1.139595
 H        -0.459515         0.608437        -0.617313
 H        -0.651087        -0.627653         0.592241
 H         1.446862        -2.192540        -0.818139
 H         2.100228        -0.842170        -1.793735
 H         5.060853        -2.231659        -0.177565
 H         4.727627        -0.064501         0.996899
 H         1.717178         2.129521        -0.272400
 H         2.029407         0.958913        -1.623582
 H         2.412544        -0.660797         2.255263
