19
Iteration:  3120
 C         0.033880         0.096880         0.323034
 C         1.456239        -0.000390         0.074212
 C         1.965994        -1.193465        -0.810669
 C         3.194598        -1.344672         0.050084
 O         4.072636        -2.470514        -0.176024
 C         3.782842        -0.079221         0.463987
 O         3.504993         1.235839        -0.285087
 C         2.152713         1.287285        -0.612861
 C         2.506541        -0.421175         1.153990
 H        -0.339572         0.712630         1.227574
 H        -0.434868         0.400707        -0.481380
 H        -0.307336        -0.928502         0.596320
 H         1.262558        -2.027004        -0.525587
 H         1.962205        -1.039712        -1.796665
 H         3.727786        -3.286748         0.300657
 H         4.736373        -0.055625         0.949107
 H         1.723791         2.166440        -0.179708
 H         1.960515         1.259331        -1.659535
 H         2.498452        -0.388145         2.197380
