19
Iteration:  4062charge 0 multiplicity 1
 C         0.040566        -0.025187         0.350637
 C         1.542176         0.041544         0.040700
 C         1.948227        -1.202767        -0.920661
 C         3.165708        -1.323047        -0.016752
 O         3.888036        -2.550941         0.109881
 C         3.812066        -0.008145         0.311905
 O         3.538009         1.184557        -0.441336
 C         2.101211         1.385269        -0.377643
 C         2.575371        -0.435088         1.083076
 H        -0.201025         0.828177         1.112721
 H        -0.618412         0.305861        -0.430521
 H        -0.094037        -1.091220         0.676561
 H         1.232960        -1.956636        -0.728721
 H         1.954043        -1.081669        -2.078571
 H         4.841226        -2.329918        -0.119693
 H         4.717900        -0.029210         0.930821
 H         1.908659         2.176677         0.352339
 H         1.781234         1.650459        -1.311619
 H         2.571027        -0.609216         2.198643
