19
Iteration:  4864charge 0 multiplicity 1
 C         0.052453         0.078084         0.384303
 C         1.436780        -0.003971         0.014923
 C         2.037063        -1.108601        -0.956604
 C         3.197298        -1.293379         0.001026
 O         3.982853        -2.411095         0.000435
 C         3.737096        -0.014426         0.526640
 O         3.580217         1.105569        -0.332444
 C         2.100167         1.294082        -0.578767
 C         2.562088        -0.547006         1.130298
 H        -0.165259         0.613802         1.329419
 H        -0.583332         0.561147        -0.464313
 H        -0.515407        -0.952211         0.694514
 H         1.449441        -2.059242        -0.740396
 H         2.192247        -0.792982        -2.049818
 H         3.566384        -3.180264        -0.355937
 H         4.693200         0.050887         1.056165
 H         1.848876         2.258924        -0.014515
 H         1.825289         1.452701        -1.615126
 H         2.350423        -0.724251         2.168332
