19
Iteration:  2972
 C         0.064372         0.221671         0.426419
 C         1.521468        -0.068135         0.028072
 C         1.904188        -1.307126        -0.907043
 C         3.213147        -1.350982        -0.044154
 O         4.126898        -2.423443         0.001343
 C         3.759329         0.035283         0.414781
 O         3.511085         1.212460        -0.177445
 C         2.076261         1.242252        -0.666580
 C         2.499743        -0.493226         1.106686
 H         0.081533         1.063630         1.062768
 H        -0.803732         0.410993        -0.450423
 H        -0.458120        -0.604176         0.896953
 H         1.200678        -2.054497        -0.700941
 H         2.070404        -1.242427        -2.108592
 H         3.732074        -3.259171        -0.156088
 H         4.744629        -0.162340         0.771881
 H         1.622640         2.156210        -0.209446
 H         1.955073         1.444313        -1.747913
 H         2.333707        -0.534664         2.125262
