19
Iteration:  1987
 C        -0.077101         0.158145         0.277674
 C         1.439995         0.004416        -0.029932
 C         1.955025        -1.291636        -0.835965
 C         3.205663        -1.343144        -0.042325
 O         4.063120        -2.458900        -0.018377
 C         3.728012        -0.035816         0.427184
 O         3.628215         1.175653        -0.314688
 C         2.147170         1.317286        -0.403743
 C         2.449829        -0.509935         1.112770
 H        -0.163523         0.771373         1.108314
 H        -0.582906         0.578923        -0.580172
 H        -0.444585        -0.863297         0.643768
 H         1.315646        -2.128387        -0.627990
 H         2.187307        -1.156614        -1.988912
 H         4.884009        -2.154104        -0.368278
 H         4.693702        -0.136705         0.988624
 H         1.829546         2.078346         0.394387
 H         1.990364         1.688152        -1.521364
 H         2.185509        -0.546062         2.169203
