19
Iteration:  2085
 C         0.128886        -0.233846         0.330545
 C         1.595933         0.096694         0.061321
 C         2.044245        -1.094202        -1.068338
 C         3.183592        -1.332792        -0.040649
 O         3.722265        -2.551806         0.223955
 C         3.805322         0.017619         0.411875
 O         3.512932         1.207441        -0.384128
 C         2.084641         1.516973        -0.395382
 C         2.594196        -0.457893         1.063883
 H        -0.213019         0.185577         1.208158
 H        -0.461838         0.054983        -0.593636
 H         0.099219        -1.373259         0.544881
 H         1.398847        -1.937897        -1.153599
 H         2.409438        -0.713025        -2.091434
 H         3.987962        -3.037534        -0.548990
 H         4.893756         0.075817         0.871527
 H         1.920578         2.257905         0.284575
 H         1.742287         1.733102        -1.476879
 H         2.348974        -0.684826         2.125535
