19
Iteration:  1935charge 0 multiplicity 1
 C        -0.109739         0.211177         0.341297
 C         1.428916        -0.074045         0.079670
 C         1.972592        -1.203638        -0.890632
 C         3.233179        -1.369686         0.026883
 O         4.026305        -2.473430        -0.152384
 C         3.757830         0.017350         0.471093
 O         3.536026         1.189368        -0.174131
 C         2.210977         1.203208        -0.654496
 C         2.507103        -0.514157         1.138738
 H        -0.144378         1.161073         1.053310
 H        -0.447435         0.584522        -0.573531
 H        -0.660607        -0.752649         0.663140
 H         1.443698        -2.241136        -0.812075
 H         2.056465        -1.006998        -1.898780
 H         4.900093        -2.150211         0.123513
 H         4.615173        -0.013875         1.263883
 H         1.809061         2.213160        -0.337754
 H         2.051729         1.253927        -1.679282
 H         2.504590        -0.556405         2.229084
