19
Iteration:  2121
 C        -0.044541         0.169009         0.347777
 C         1.453331        -0.086899         0.058003
 C         2.040973        -1.176989        -1.021975
 C         3.249800        -1.351692        -0.046008
 O         4.010374        -2.517613         0.075771
 C         3.770947         0.002059         0.468836
 O         3.558026         1.148420        -0.384522
 C         2.088227         1.339937        -0.391816
 C         2.486387        -0.534401         1.072743
 H        -0.282116         1.022859         1.081587
 H        -0.561770         0.387406        -0.505883
 H        -0.562002        -0.714323         0.758609
 H         1.312681        -2.104024        -1.150609
 H         2.156299        -0.720545        -1.989105
 H         4.910152        -2.264748        -0.158515
 H         4.666250         0.043159         1.038907
 H         1.723525         2.100913         0.242433
 H         1.841710         1.686116        -1.381068
 H         2.299842        -0.676259         2.111004
