19
Iteration:  2499
 C         0.090196         0.032499         0.444972
 C         1.515167        -0.038254        -0.037493
 C         2.016493        -1.091207        -1.013381
 C         3.225460        -1.371811        -0.076114
 O         3.948952        -2.520718         0.111842
 C         3.720146         0.084495         0.451464
 O         3.502561         1.231083        -0.266696
 C         2.109647         1.299499        -0.525624
 C         2.583133        -0.548398         1.006873
 H        -0.011418         0.854210         1.051814
 H        -0.626434         0.181439        -0.424329
 H        -0.198232        -0.873745         1.057026
 H         1.282751        -1.768922        -1.123503
 H         2.329456        -0.763372        -2.018592
 H         3.263563        -3.168611         0.397845
 H         4.756774         0.048622         0.851216
 H         1.810916         2.088712         0.125470
 H         1.823492         1.482803        -1.616016
 H         2.365727        -0.652522         2.126033
