19
Iteration:   165
 C         0.086647        -0.216924         0.346867
 C         1.533291         0.044049        -0.083227
 C         2.013457        -1.116023        -1.062528
 C         3.154309        -1.320191        -0.124044
 O         3.670154        -2.461556         0.259521
 C         3.779599         0.015929         0.415883
 O         3.663673         1.198041        -0.361897
 C         2.204514         1.437474        -0.283605
 C         2.546325        -0.422082         1.003919
 H        -0.266065         0.501968         1.084794
 H        -0.533094        -0.114973        -0.542385
 H        -0.039902        -1.290393         0.670938
 H         1.367128        -1.962395        -1.094702
 H         2.341219        -0.940730        -2.131719
 H         4.404952        -2.810214        -0.307819
 H         4.771006        -0.234969         0.932094
 H         1.964143         2.100989         0.576876
 H         1.797178         1.917351        -1.093128
 H         2.168176        -0.812884         1.945055
