19
Iteration:   652
 C         0.108277         0.011406         0.327058
 C         1.553552         0.058164        -0.024334
 C         1.970455        -1.152211        -0.972578
 C         3.101137        -1.400996        -0.015796
 O         3.912926        -2.506424         0.102830
 C         3.721794        -0.064507         0.480659
 O         3.614958         1.185991        -0.266246
 C         2.163539         1.435108        -0.475034
 C         2.436860        -0.505639         1.035229
 H        -0.163851         0.671926         1.080767
 H        -0.422047         0.236842        -0.636333
 H        -0.045079        -1.012189         0.597122
 H         1.236629        -1.855516        -0.874940
 H         2.201069        -1.042621        -2.055416
 H         4.534729        -2.459412        -0.658505
 H         4.729557        -0.215701         1.019574
 H         1.859520         2.228943         0.273287
 H         2.038480         1.847474        -1.535608
 H         2.053698        -0.655088         2.107624
