19
Iteration:   406
 C         0.033661         0.181770         0.234025
 C         1.524223        -0.008473         0.032548
 C         2.090297        -1.165822        -0.965694
 C         3.192222        -1.377297         0.059818
 O         3.914140        -2.589085        -0.001207
 C         3.723379         0.010063         0.482008
 O         3.523275         1.156308        -0.388193
 C         2.052936         1.316839        -0.363869
 C         2.520111        -0.475136         1.114287
 H        -0.179915         0.818504         1.139612
 H        -0.388187         0.625311        -0.632803
 H        -0.372422        -0.927124         0.376865
 H         1.459974        -2.095620        -1.112397
 H         2.522519        -0.754648        -1.884818
 H         4.898547        -2.405220        -0.152765
 H         4.687063        -0.074833         1.047682
 H         1.754669         1.986047         0.480785
 H         1.833559         1.740785        -1.400188
 H         2.275165        -0.584238         2.207650
