19
Iteration:   512
 C        -0.012638         0.054266         0.325743
 C         1.473381        -0.048120        -0.014910
 C         2.224718        -1.117652        -0.969313
 C         3.303351        -1.365844         0.002493
 O         3.688062        -2.655845         0.012562
 C         3.815513         0.050964         0.417515
 O         3.527760         1.230129        -0.359579
 C         2.069808         1.379555        -0.391484
 C         2.553675        -0.481449         1.106001
 H        -0.199399         0.901922         1.128053
 H        -0.607313         0.283688        -0.684071
 H        -0.301961        -0.874703         0.625224
 H         1.641334        -1.962073        -1.216617
 H         2.713214        -0.798177        -1.969168
 H         4.508751        -2.806782         0.591341
 H         4.763592         0.096126         0.996439
 H         1.689910         2.062812         0.453663
 H         1.864721         1.843805        -1.386839
 H         2.468251        -0.407895         2.253957
