19
Iteration:  2863charge 0 multiplicity 1
 C        -0.030526        -0.124666         0.318950
 C         1.482662         0.006908         0.059336
 C         2.077123        -1.050155        -0.900924
 C         3.239769        -1.314167        -0.026687
 O         3.875274        -2.457425         0.214107
 C         3.844372         0.020244         0.293672
 O         3.478274         1.036115        -0.608713
 C         2.168202         1.475260        -0.210386
 C         2.563640        -0.448121         1.066542
 H        -0.463320         0.397254         1.107862
 H        -0.565781         0.140615        -0.743412
 H        -0.264628        -1.176369         0.352904
 H         1.425760        -1.868515        -1.029941
 H         2.469138        -0.710836        -1.981280
 H         3.663789        -3.313802        -0.179722
 H         4.852674         0.062487         0.714458
 H         1.963196         2.099631         0.746749
 H         1.676610         2.035829        -1.066659
 H         2.581310        -0.512642         2.143366
