19
Iteration:  4928
 C         0.011723         0.040347         0.276958
 C         1.554405        -0.022187         0.091060
 C         2.056240        -1.019121        -0.960273
 C         3.175108        -1.315213        -0.054240
 O         3.952785        -2.450208         0.147847
 C         3.829706         0.000387         0.362293
 O         3.510512         1.166410        -0.452341
 C         2.074083         1.345260        -0.341128
 C         2.559837        -0.613498         1.097712
 H        -0.342190         0.761234         0.991204
 H        -0.421972         0.088555        -0.738755
 H        -0.420949        -0.906605         0.677253
 H         1.404312        -1.932186        -1.056166
 H         2.193842        -0.858603        -2.092324
 H         3.338145        -3.181640         0.472157
 H         4.879595        -0.119873         0.554809
 H         1.980720         2.149784         0.411662
 H         1.448556         1.778172        -1.214264
 H         2.539247        -1.028597         2.155076
