19
Iteration:  4848
 C        -0.039397         0.119728         0.395847
 C         1.529256        -0.061686         0.081709
 C         1.969775        -1.115538        -0.983533
 C         3.269051        -1.295722        -0.119197
 O         4.030525        -2.488003         0.090864
 C         3.778082        -0.015009         0.427246
 O         3.540451         1.230858        -0.296799
 C         2.142875         1.238893        -0.497077
 C         2.462314        -0.523866         1.097382
 H        -0.171587         0.909048         1.144277
 H        -0.528526         0.442469        -0.451598
 H        -0.364136        -0.758067         0.763100
 H         1.302768        -1.950147        -0.967914
 H         2.196362        -0.661583        -2.014023
 H         3.465325        -3.189943        -0.370556
 H         4.766732        -0.099738         0.882722
 H         1.686923         2.113961        -0.105716
 H         2.014136         1.121528        -1.647475
 H         2.299325        -0.776069         2.197541
