19
Iteration:  3109
 C         0.032558         0.054846         0.410111
 C         1.541619        -0.029989         0.010630
 C         1.982646        -1.162787        -0.867199
 C         3.216740        -1.343420         0.017016
 O         3.999526        -2.552079        -0.129543
 C         3.735763         0.097955         0.440557
 O         3.523141         1.210507        -0.268916
 C         2.102115         1.316687        -0.593892
 C         2.547115        -0.450869         1.144189
 H        -0.213598         0.898606         1.185858
 H        -0.481269         0.220173        -0.411571
 H        -0.318409        -0.954141         0.705702
 H         1.368305        -2.108957        -0.798263
 H         2.180856        -1.038616        -1.851741
 H         3.591221        -3.199095         0.533799
 H         4.672403         0.004672         0.927468
 H         1.685566         2.219709        -0.198866
 H         2.093642         1.397709        -1.658460
 H         2.300112        -0.564548         2.157364
