19
Iteration:  3219
 C         0.096674        -0.205129         0.438732
 C         1.545292         0.042466         0.035989
 C         2.037662        -1.040959        -1.048203
 C         3.157211        -1.229785        -0.095972
 O         3.825526        -2.532978         0.178135
 C         3.808835         0.024578         0.373055
 O         3.525577         1.172680        -0.480852
 C         2.140625         1.393672        -0.453899
 C         2.581308        -0.472829         1.096688
 H        -0.340289         0.545132         1.281414
 H        -0.553010        -0.165787        -0.356972
 H        -0.053970        -1.231718         0.914693
 H         1.414994        -2.025620        -1.106580
 H         2.326501        -0.598217        -1.961480
 H         3.428643        -2.902212         0.985066
 H         4.867537         0.099590         0.805003
 H         1.825425         2.160216         0.310470
 H         1.831355         1.718984        -1.394602
 H         2.363878        -0.780206         2.156758
