19
Iteration:  2800charge 0 multiplicity 1
 C         0.023840         0.024495         0.464179
 C         1.539206        -0.061411        -0.010876
 C         2.041279        -1.206540        -0.957614
 C         3.196005        -1.302751        -0.057561
 O         3.916476        -2.523232         0.055299
 C         3.786839         0.105203         0.481885
 O         3.577955         1.298330        -0.312148
 C         2.095664         1.280320        -0.559150
 C         2.522359        -0.482341         1.066159
 H        -0.168400         0.773842         1.320635
 H        -0.732277         0.158025        -0.278961
 H        -0.192629        -0.928853         0.911856
 H         1.350232        -2.070071        -0.758017
 H         2.190052        -1.029715        -2.008914
 H         3.413298        -3.245968        -0.461016
 H         4.821771         0.086646         0.863717
 H         1.665229         2.123592        -0.116534
 H         2.064513         1.345786        -1.667966
 H         2.359532        -0.694864         2.140077
