19
Iteration:  4717
 C        -0.024726        -0.078325         0.377503
 C         1.491504         0.048069        -0.039587
 C         2.027178        -1.211037        -0.949213
 C         3.220784        -1.236667        -0.140177
 O         3.882488        -2.472042         0.183253
 C         3.834803         0.022287         0.390155
 O         3.609815         1.204831        -0.311680
 C         2.108536         1.409880        -0.365355
 C         2.555797        -0.553086         0.958347
 H        -0.203721         0.579148         1.318764
 H        -0.774036         0.358026        -0.297936
 H        -0.361047        -1.008267         0.694041
 H         1.386589        -2.031850        -0.754209
 H         2.242922        -1.169921        -2.033321
 H         3.561141        -3.178182        -0.491370
 H         4.791808         0.007865         0.966959
 H         1.865796         2.168890         0.380675
 H         1.858230         1.658113        -1.519562
 H         2.333929        -0.719817         1.970157
