19
Iteration:  2178
 C        -0.091992         0.089664         0.225981
 C         1.463653         0.002974         0.093756
 C         1.999955        -1.151532        -0.871501
 C         3.201379        -1.331685        -0.001354
 O         4.000028        -2.432206        -0.160973
 C         3.787913        -0.053174         0.451418
 O         3.555981         1.125345        -0.254209
 C         2.162054         1.263608        -0.544437
 C         2.496518        -0.451909         1.240615
 H        -0.400770         0.746739         1.126842
 H        -0.630754         0.378497        -0.641079
 H        -0.347809        -0.875492         0.540047
 H         1.319186        -2.089401        -0.610341
 H         2.023034        -0.975759        -1.937568
 H         4.854050        -2.252421         0.326909
 H         4.711179        -0.106903         0.990788
 H         1.820319         2.148320        -0.091830
 H         2.091307         1.261895        -1.591662
 H         2.567086        -0.546809         2.350631
