19
Iteration:   744
 C        -0.070632        -0.073873         0.294627
 C         1.485667        -0.001178        -0.012749
 C         2.050802        -1.139789        -0.955120
 C         3.215108        -1.252724        -0.066610
 O         3.785551        -2.553939         0.020218
 C         3.822155         0.023138         0.426550
 O         3.644098         1.217884        -0.284540
 C         2.226940         1.345370        -0.428158
 C         2.521764        -0.473282         1.044457
 H        -0.347971         0.850574         1.064465
 H        -0.903842         0.185028        -0.356380
 H        -0.366026        -1.137261         0.656846
 H         1.397525        -2.120621        -0.787498
 H         2.178047        -0.908842        -2.016872
 H         4.181350        -2.727467         0.933338
 H         4.712470        -0.010175         1.004323
 H         1.821862         2.189628         0.292565
 H         2.111713         1.626105        -1.419000
 H         2.459087        -0.506468         2.169594
