19
Iteration:  1350
 C        -0.029912         0.176143         0.242236
 C         1.501412        -0.007578         0.048887
 C         1.829402        -1.313571        -0.851805
 C         3.113259        -1.336478        -0.109444
 O         4.031181        -2.410667        -0.094587
 C         3.740659        -0.063465         0.473528
 O         3.617591         1.255906        -0.133927
 C         2.263317         1.206387        -0.471230
 C         2.496489        -0.491694         1.157508
 H        -0.348193         0.846971         1.022024
 H        -0.568626         0.428090        -0.753230
 H        -0.423108        -0.809191         0.305018
 H         1.167550        -2.073245        -0.657617
 H         1.975517        -1.089674        -1.957394
 H         4.913627        -2.156798        -0.199432
 H         4.851787        -0.223878         0.593511
 H         1.788973         2.176797        -0.142569
 H         2.064564         1.196277        -1.673452
 H         2.361741        -0.659230         2.211596
