19
Iteration:  3011
 C        -0.020577        -0.066103         0.287351
 C         1.476859         0.036861         0.069133
 C         2.074672        -1.073353        -0.890602
 C         3.228339        -1.307997         0.049741
 O         3.931300        -2.476259        -0.026371
 C         3.838515         0.038946         0.425201
 O         3.561936         1.070283        -0.492047
 C         2.048958         1.337231        -0.433056
 C         2.596244        -0.435515         1.226859
 H        -0.453352         0.529337         1.157761
 H        -0.422441         0.339810        -0.561415
 H        -0.373963        -1.133915         0.253025
 H         1.389878        -2.009088        -0.719555
 H         2.144310        -0.890486        -1.887557
 H         3.247198        -3.195900         0.135411
 H         4.801209         0.310853         0.871340
 H         1.920853         2.189347         0.283003
 H         1.711152         1.659789        -1.432340
 H         2.374807        -0.469679         2.331739
