19
Iteration:  1152
 C         0.042154         0.084630         0.302985
 C         1.490645        -0.010947        -0.072481
 C         1.847853        -1.185761        -0.949398
 C         3.153408        -1.390418        -0.037968
 O         4.006519        -2.529112         0.049731
 C         3.759359        -0.099211         0.391920
 O         3.637629         1.262348        -0.182239
 C         2.178817         1.405498        -0.456456
 C         2.458649        -0.520913         1.065418
 H        -0.229303         0.800618         1.193108
 H        -0.556925         0.518579        -0.606152
 H        -0.299121        -0.855113         0.660049
 H         1.262141        -2.071739        -0.798790
 H         1.962195        -1.207383        -2.133449
 H         4.923342        -2.154633         0.048422
 H         4.732755        -0.223140         0.896567
 H         1.688072         2.221099         0.198929
 H         1.952273         1.665435        -1.502825
 H         2.228061        -0.627860         2.195979
