19
Iteration:  4894
 C         0.007846        -0.007902         0.333196
 C         1.478298        -0.008556         0.010177
 C         2.028102        -1.140909        -0.916447
 C         3.180395        -1.390831         0.009745
 O         4.062471        -2.497071        -0.053572
 C         3.683027        -0.027640         0.458019
 O         3.610010         1.120576        -0.428282
 C         2.118552         1.407372        -0.390487
 C         2.460286        -0.355785         1.133995
 H        -0.220417         0.567547         1.267286
 H        -0.481712         0.522169        -0.453932
 H        -0.229356        -0.992649         0.353973
 H         1.384384        -2.000512        -0.737219
 H         2.296441        -0.901574        -2.007087
 H         3.563022        -3.365702         0.232811
 H         4.697790        -0.068825         0.954725
 H         2.120941         2.033365         0.471519
 H         1.623842         1.829349        -1.376698
 H         2.153518        -0.113766         2.294675
