19
Iteration:   946charge 0 multiplicity 1
 C         0.019724         0.074685         0.266490
 C         1.489261         0.110301         0.008020
 C         1.993993        -1.125515        -0.936713
 C         3.184041        -1.373825        -0.031295
 O         3.936330        -2.592366         0.002240
 C         3.760970        -0.099168         0.395713
 O         3.559119         1.143641        -0.311906
 C         2.151031         1.436765        -0.358747
 C         2.516095        -0.515641         1.099490
 H        -0.371797         0.706310         1.020393
 H        -0.461005         0.348080        -0.770927
 H        -0.256008        -0.883829         0.645624
 H         1.284593        -1.880222        -0.959983
 H         2.203629        -0.792255        -2.019844
 H         4.744340        -2.448891         0.600275
 H         4.639087         0.047498         0.998824
 H         1.832728         2.291076         0.353581
 H         1.844445         1.728073        -1.447308
 H         2.368524        -0.839451         2.172747
