19
Iteration:  4187charge 0 multiplicity 1
 C         0.039053        -0.103667         0.406549
 C         1.532390         0.044023         0.069023
 C         2.047366        -1.015634        -0.984263
 C         3.148841        -1.375914         0.006188
 O         3.815673        -2.555902         0.136076
 C         3.837533        -0.004016         0.291719
 O         3.531618         1.136815        -0.489523
 C         2.093393         1.377777        -0.388762
 C         2.561037        -0.399079         1.139906
 H        -0.340892         0.574538         1.228379
 H        -0.413437        -0.031011        -0.653820
 H        -0.227804        -1.125327         0.798406
 H         1.379085        -1.922651        -1.052800
 H         2.423122        -0.715819        -2.001251
 H         4.736631        -2.476510        -0.087132
 H         4.886015        -0.041342         0.565650
 H         1.988637         2.128974         0.415873
 H         1.666480         1.766661        -1.267551
 H         2.360613        -0.540940         2.181912
