19
Iteration:  4971
 C         0.002647        -0.066508         0.457396
 C         1.473128         0.058946        -0.075606
 C         2.143119        -1.139389        -0.955524
 C         3.188050        -1.358659         0.024180
 O         3.955178        -2.550257         0.018762
 C         3.784101        -0.049892         0.441610
 O         3.571595         1.239951        -0.428377
 C         2.082901         1.448300        -0.419264
 C         2.479071        -0.473495         1.085079
 H        -0.113224         0.858383         1.037198
 H        -0.613607        -0.095776        -0.418911
 H        -0.074364        -0.916819         0.963757
 H         1.447900        -1.976993        -1.132550
 H         2.350475        -1.005039        -2.050273
 H         3.360294        -3.168993         0.423602
 H         4.690569        -0.056407         1.027844
 H         1.761598         2.238134         0.259277
 H         1.856507         1.909672        -1.469304
 H         2.213539        -0.654792         2.169932
