19
Iteration:  3283
 C         0.116096        -0.029024         0.385866
 C         1.518407         0.041813         0.053317
 C         2.118802        -0.998206        -1.024837
 C         3.213252        -1.326860        -0.013805
 O         3.881132        -2.560411         0.162283
 C         3.811678         0.040180         0.316077
 O         3.438193         1.115487        -0.505250
 C         2.034149         1.327885        -0.392624
 C         2.585457        -0.482632         1.081545
 H        -0.192908         0.595780         1.349120
 H        -0.449509         0.232753        -0.466367
 H        -0.129652        -1.075055         0.809659
 H         1.499088        -2.014463        -1.085572
 H         2.518999        -0.663384        -2.049374
 H         3.273593        -2.950641         0.759514
 H         4.754843         0.163913         0.937504
 H         1.829567         2.104211         0.506632
 H         1.746725         1.683344        -1.337600
 H         2.404475        -0.641559         2.144317
