19
Iteration:     4
 C         0.032105         0.053098         0.298179
 C         1.540739         0.004866        -0.006875
 C         2.066130        -1.084045        -0.982497
 C         3.190641        -1.307995        -0.012101
 O         3.864010        -2.554934         0.135967
 C         3.768955         0.017203         0.425379
 O         3.566840         1.152178        -0.340096
 C         2.118524         1.338983        -0.397315
 C         2.505127        -0.542714         1.053825
 H        -0.208102         0.781827         1.026267
 H        -0.609525         0.283872        -0.544548
 H        -0.335292        -1.008436         0.582158
 H         1.310920        -1.990505        -0.991626
 H         2.252528        -0.751521        -1.977845
 H         4.619869        -2.633064        -0.446027
 H         4.667969         0.085062         1.089489
 H         1.776202         2.147020         0.314773
 H         1.893375         1.730427        -1.463307
 H         2.209704        -0.761893         2.095748
