19
Iteration:  1473
 C         0.073180        -0.230171         0.309604
 C         1.558904         0.030358         0.039098
 C         2.220419        -1.012491        -1.149333
 C         3.188252        -1.282434        -0.007602
 O         3.600285        -2.607574         0.290400
 C         3.858719         0.062639         0.336981
 O         3.530055         1.237065        -0.483747
 C         2.099193         1.382816        -0.212734
 C         2.601990        -0.428312         1.065030
 H        -0.390746         0.335968         1.092917
 H        -0.442182         0.035501        -0.679892
 H        -0.127350        -1.333644         0.679849
 H         1.588134        -1.834378        -1.374212
 H         2.698768        -0.538656        -2.060034
 H         3.650843        -3.075389        -0.518918
 H         4.801011        -0.028160         0.756456
 H         1.956901         2.067797         0.568183
 H         1.658917         2.013863        -1.067998
 H         2.443986        -0.784470         2.088393
