19
Iteration:  2641charge 0 multiplicity 1
 C         0.122168        -0.322630         0.484737
 C         1.546878         0.020393        -0.007501
 C         2.066769        -1.030338        -1.048645
 C         3.127551        -1.294124        -0.020740
 O         3.690737        -2.616037         0.165646
 C         3.844922         0.097063         0.298325
 O         3.595773         1.233029        -0.470017
 C         2.111051         1.417036        -0.399600
 C         2.588720        -0.342488         1.040090
 H        -0.234751         0.239192         1.289167
 H        -0.598790        -0.197008        -0.365557
 H         0.134089        -1.418292         0.805555
 H         1.580173        -1.981186        -1.151029
 H         2.282963        -0.529518        -2.051657
 H         3.653771        -2.922498         1.096238
 H         4.832077         0.147583         0.884705
 H         2.086157         2.077999         0.424818
 H         1.635254         1.790943        -1.316085
 H         2.283425        -0.418573         2.040568
