19
Iteration:   389charge 0 multiplicity 1
 C        -0.108884         0.001089         0.214561
 C         1.436730        -0.021683         0.014215
 C         2.010591        -1.052298        -0.995783
 C         3.241701        -1.317114        -0.048617
 O         3.882821        -2.545563         0.167661
 C         3.834489         0.006254         0.395477
 O         3.596995         1.144750        -0.366699
 C         2.207720         1.360799        -0.317961
 C         2.535402        -0.544840         1.105405
 H        -0.290119         0.616706         1.075224
 H        -0.476811         0.575069        -0.705649
 H        -0.670129        -0.882843         0.372110
 H         1.315816        -1.902037        -0.954099
 H         2.010747        -0.724360        -2.044339
 H         4.771224        -2.494332        -0.354752
 H         4.771380         0.058774         0.969680
 H         1.938136         2.125522         0.456803
 H         1.724961         1.676183        -1.233061
 H         2.473436        -0.634404         2.156983
