19
Iteration:  3173
 C         0.032796         0.249318         0.335772
 C         1.450206        -0.070864         0.036386
 C         2.017631        -1.240748        -0.869709
 C         3.238522        -1.334123         0.002755
 O         4.155017        -2.407239         0.007462
 C         3.683240         0.025069         0.422026
 O         3.506657         1.088585        -0.444647
 C         2.066487         1.291862        -0.413155
 C         2.515669        -0.533405         1.132917
 H        -0.004333         1.070049         1.243164
 H        -0.530629         0.600714        -0.544339
 H        -0.500622        -0.724816         0.625595
 H         1.192485        -2.032059        -0.596416
 H         2.175838        -1.090606        -2.003754
 H         3.719729        -3.214847        -0.417477
 H         4.656172        -0.018012         0.853857
 H         1.764922         2.152372         0.267771
 H         1.769864         1.560494        -1.387190
 H         2.264054        -0.655771         2.145024
