19
Iteration:  1351charge 0 multiplicity 1
 C        -0.017617         0.191000         0.242510
 C         1.497435        -0.010115         0.046956
 C         1.824221        -1.319110        -0.851621
 C         3.111215        -1.342094        -0.098627
 O         4.036703        -2.404645        -0.099652
 C         3.736003        -0.061853         0.469018
 O         3.616463         1.254057        -0.131610
 C         2.264852         1.200013        -0.475826
 C         2.497960        -0.497263         1.153661
 H        -0.360273         0.832940         1.000036
 H        -0.574797         0.432370        -0.765126
 H        -0.450756        -0.830274         0.305385
 H         1.191845        -2.069118        -0.623821
 H         1.946996        -1.100299        -1.978286
 H         4.944587        -2.154377        -0.207836
 H         4.850987        -0.210814         0.616739
 H         1.772445         2.207218        -0.137577
 H         2.064534         1.235625        -1.636898
 H         2.335136        -0.664167         2.262474
