19
Iteration:  3304charge 0 multiplicity 1
 C        -0.048889         0.066958         0.376521
 C         1.457404        -0.019971         0.055750
 C         1.981646        -1.125787        -0.959348
 C         3.209373        -1.351088        -0.071540
 O         4.067801        -2.426611         0.108998
 C         3.775520         0.053852         0.448828
 O         3.569962         1.092594        -0.486095
 C         2.105496         1.332671        -0.419168
 C         2.546468        -0.517836         1.072054
 H        -0.074389         0.829734         1.242574
 H        -0.508039         0.522231        -0.464728
 H        -0.599996        -0.812576         0.854731
 H         1.333275        -2.111707        -0.910104
 H         2.132014        -0.770538        -2.063122
 H         3.476172        -3.208059         0.359395
 H         4.797897        -0.110936         0.902139
 H         1.790920         2.141697         0.320244
 H         1.800376         1.528251        -1.428187
 H         2.471062        -0.732652         2.134140
