19
Iteration:  2287charge 0 multiplicity 1
 C        -0.040132        -0.056041         0.160748
 C         1.492934         0.047289         0.043482
 C         2.102376        -1.091972        -1.005216
 C         3.180752        -1.330287         0.015197
 O         3.904552        -2.506627         0.138330
 C         3.808926        -0.023000         0.400088
 O         3.529252         1.138226        -0.413364
 C         2.117300         1.394378        -0.271939
 C         2.506974        -0.478990         1.126888
 H        -0.319637         0.458004         1.201140
 H        -0.620928         0.341187        -0.595099
 H        -0.232478        -1.070462         0.351764
 H         1.419709        -2.021736        -1.076481
 H         2.450235        -0.844262        -1.964364
 H         4.419688        -2.672107        -0.629270
 H         4.857214        -0.054015         0.921187
 H         1.939591         2.189776         0.521181
 H         1.841587         1.859447        -1.239199
 H         2.408421        -0.633669         2.239496
