19
Iteration:  1495
 C         0.151128        -0.085450         0.296762
 C         1.565521         0.034729        -0.020760
 C         2.131137        -0.905069        -1.028919
 C         3.270371        -1.362834         0.006245
 O         3.754109        -2.655264         0.215176
 C         3.800065         0.059744         0.406400
 O         3.452555         1.165288        -0.386544
 C         2.044783         1.395010        -0.393859
 C         2.580691        -0.541699         1.084791
 H        -0.117360         0.585343         1.096435
 H        -0.466695         0.137539        -0.627556
 H        -0.046673        -1.153138         0.740059
 H         1.428093        -1.695118        -1.213377
 H         2.425745        -0.402710        -1.981595
 H         3.468883        -3.247647        -0.562645
 H         4.666758         0.271459         0.922644
 H         1.817350         2.101363         0.318639
 H         1.637391         1.918932        -1.332932
 H         2.492032        -0.619509         2.138271
