19
Iteration:  2562
 C        -0.028642         0.174089         0.266144
 C         1.507305         0.017611         0.094192
 C         1.916351        -1.309268        -0.762028
 C         3.168629        -1.379751         0.014657
 O         4.133660        -2.409721        -0.105541
 C         3.724360        -0.013804         0.481252
 O         3.567153         1.130818        -0.347119
 C         2.153561         1.264128        -0.478181
 C         2.475416        -0.458833         1.134370
 H        -0.276500         0.972349         1.092270
 H        -0.336374         0.597723        -0.629703
 H        -0.695939        -0.719588         0.380132
 H         1.030531        -2.006950        -0.446671
 H         1.920925        -1.176233        -1.854742
 H         4.606832        -2.340035        -0.938811
 H         4.738217        -0.073984         0.877211
 H         1.808466         2.212819        -0.013057
 H         1.836776         1.385818        -1.495155
 H         2.296766        -0.727949         2.228113
