19
Iteration:  1097
 C        -0.011909        -0.058111         0.273951
 C         1.517954         0.005499         0.037566
 C         2.189379        -0.924818        -1.036516
 C         3.208763        -1.332108         0.004274
 O         3.769850        -2.583502         0.188629
 C         3.754195         0.032923         0.388053
 O         3.519728         1.094923        -0.420188
 C         2.138572         1.364540        -0.292643
 C         2.550943        -0.501847         1.077437
 H        -0.230526         0.678038         1.160634
 H        -0.500356         0.163806        -0.755629
 H        -0.350651        -1.054248         0.457890
 H         1.530612        -1.680809        -1.467075
 H         2.958750        -0.498731        -1.844689
 H         3.951882        -2.960679        -0.742355
 H         4.714025         0.076028         0.914468
 H         1.924329         2.110749         0.538248
 H         1.779463         1.765903        -1.210364
 H         2.545019        -0.626187         2.193210
