19
Iteration:  1160charge 0 multiplicity 1
 C        -0.002370         0.119653         0.346550
 C         1.471800         0.031264        -0.048532
 C         1.883574        -1.233766        -1.035337
 C         3.059518        -1.395592        -0.086173
 O         4.052030        -2.486995         0.055326
 C         3.719472        -0.070232         0.406626
 O         3.680524         1.241007        -0.161571
 C         2.168083         1.313238        -0.465121
 C         2.489203        -0.498292         1.061469
 H        -0.170640         0.959111         1.114643
 H        -0.636150         0.371464        -0.417173
 H        -0.410807        -0.822664         0.670185
 H         1.043961        -2.002389        -0.765648
 H         2.112680        -1.130341        -2.031539
 H         4.972542        -2.066431         0.161726
 H         4.638756        -0.222567         1.004274
 H         1.773942         2.074933         0.225399
 H         2.183879         1.550956        -1.618575
 H         2.439392        -0.778124         2.160690
