19
Iteration:  3049charge 0 multiplicity 1
 C         0.054738        -0.153143         0.412929
 C         1.555520         0.071096        -0.040847
 C         2.030996        -0.973760        -1.098148
 C         3.136247        -1.362781         0.012078
 O         3.952362        -2.503537         0.278161
 C         3.767990        -0.054326         0.275707
 O         3.517587         1.164612        -0.591002
 C         2.112315         1.472555        -0.222803
 C         2.562157        -0.523636         1.052299
 H        -0.396853         0.434120         1.194366
 H        -0.576802         0.099149        -0.639948
 H        -0.099821        -1.152520         0.814320
 H         1.432052        -1.827183        -1.226092
 H         2.514197        -0.610627        -2.135066
 H         3.452629        -3.313925         0.598409
 H         4.699903        -0.098456         0.897031
 H         1.950116         1.985178         0.754922
 H         1.700519         1.967287        -1.134350
 H         2.308002        -0.573019         2.136724
