19
Iteration:  3786
 C        -0.026094        -0.017828         0.419368
 C         1.474991         0.005379         0.066908
 C         1.978210        -1.074677        -1.036915
 C         3.182340        -1.344462        -0.018774
 O         4.028062        -2.424372         0.130561
 C         3.785687        -0.020519         0.304528
 O         3.603332         1.132643        -0.408167
 C         2.132717         1.310524        -0.426258
 C         2.527222        -0.485370         1.075791
 H        -0.289438         0.732037         1.225438
 H        -0.622614         0.333282        -0.450028
 H        -0.371576        -1.100015         0.710983
 H         1.235185        -1.869296        -0.929225
 H         2.219666        -0.564944        -2.043714
 H         3.364760        -3.131276         0.468930
 H         4.672397         0.070742         0.821088
 H         1.994578         2.178650         0.268189
 H         1.916664         1.497810        -1.416526
 H         2.266463        -0.759296         2.124147
