19
Iteration:  4867
 C         0.048849         0.072096         0.380032
 C         1.448467        -0.006765        -0.004143
 C         2.029470        -1.128865        -0.946728
 C         3.185678        -1.300083         0.032062
 O         3.988374        -2.398139        -0.017250
 C         3.761634        -0.024191         0.536472
 O         3.561045         1.101309        -0.345160
 C         2.115642         1.321526        -0.573409
 C         2.538610        -0.530291         1.120742
 H        -0.130395         0.581726         1.315140
 H        -0.578900         0.579884        -0.419415
 H        -0.450502        -0.993436         0.664302
 H         1.416381        -2.024723        -0.739995
 H         2.281107        -0.825873        -1.916139
 H         3.485258        -3.226001        -0.365005
 H         4.653140         0.057875         1.092935
 H         1.885742         2.237428         0.032010
 H         1.816655         1.458808        -1.578756
 H         2.435645        -0.739036         2.129241
