19
Iteration:  1566charge 0 multiplicity 1
 C        -0.027626         0.321928         0.267269
 C         1.438379        -0.061576         0.078405
 C         1.927108        -1.267254        -0.854236
 C         3.234908        -1.344308        -0.056602
 O         4.163134        -2.428656        -0.043923
 C         3.689918        -0.031844         0.487698
 O         3.533723         1.186103        -0.188443
 C         2.160435         1.265910        -0.577617
 C         2.485564        -0.653314         1.134045
 H        -0.110311         1.227860         1.010272
 H        -0.248320         0.698234        -0.754739
 H        -0.721692        -0.425159         0.618800
 H         1.340288        -2.220512        -0.573914
 H         2.012734        -1.123058        -1.920699
 H         4.158264        -2.725960        -1.021398
 H         4.592615        -0.075659         1.112996
 H         1.602473         2.232958        -0.265866
 H         2.050725         1.378033        -1.580797
 H         2.414552        -0.649632         2.312674
