19
Iteration:  1963charge 0 multiplicity 1
 C         0.052738         0.252602         0.243162
 C         1.508720        -0.056281         0.051100
 C         1.926105        -1.269210        -0.827398
 C         3.200289        -1.360918        -0.010641
 O         4.101513        -2.420307        -0.164817
 C         3.685458         0.015648         0.571701
 O         3.511680         1.113811        -0.266235
 C         2.136787         1.226804        -0.533253
 C         2.456140        -0.531977         1.211288
 H         0.089031         0.971002         0.993871
 H        -0.215372         0.877290        -0.699146
 H        -0.564518        -0.600198         0.498940
 H         1.266929        -2.016533        -0.495261
 H         1.931880        -1.260049        -2.048792
 H         4.959724        -1.937827        -0.433027
 H         4.543841         0.033345         1.112313
 H         1.785750         2.153390        -0.021585
 H         1.819244         1.261675        -1.735270
 H         2.117074        -0.711534         2.214194
