19
Iteration:  2964charge 0 multiplicity 1
 C         0.077911         0.231626         0.448353
 C         1.469051        -0.056363        -0.078346
 C         1.883218        -1.327929        -0.856504
 C         3.150166        -1.338157        -0.055838
 O         4.183151        -2.370157         0.025844
 C         3.704699        -0.016440         0.405979
 O         3.483924         1.223599        -0.164887
 C         2.163871         1.242290        -0.619618
 C         2.519892        -0.511609         1.004636
 H         0.164997         1.190084         1.055245
 H        -0.644212         0.454220        -0.298144
 H        -0.266735        -0.539755         1.156479
 H         1.254943        -2.249609        -0.710429
 H         2.011790        -1.128910        -1.929916
 H         3.636612        -3.131223        -0.063840
 H         4.713319        -0.242219         0.834871
 H         1.589279         2.074589        -0.178350
 H         2.126938         1.222535        -1.719018
 H         2.260745        -0.783393         2.053341
