19
Iteration:  4021charge 0 multiplicity 1
 C        -0.005747        -0.047444         0.455959
 C         1.489257        -0.029588         0.030730
 C         2.096111        -1.008244        -1.072198
 C         3.240926        -1.321144         0.011921
 O         3.825987        -2.576288         0.247754
 C         3.856626         0.063893         0.307548
 O         3.519163         1.145899        -0.574051
 C         2.054228         1.332178        -0.302626
 C         2.588232        -0.469962         1.072754
 H        -0.434061         0.776946         1.147262
 H        -0.524804         0.070106        -0.510283
 H        -0.261815        -0.954426         0.866699
 H         1.564564        -1.896264        -1.194871
 H         2.528492        -0.561435        -2.028942
 H         3.799893        -2.982657        -0.604382
 H         4.798530         0.189447         0.934471
 H         1.935392         2.043159         0.626975
 H         1.683174         1.741750        -1.314802
 H         2.687862        -0.585346         2.206799
