19
Iteration:  3010charge 0 multiplicity 1
 C        -0.022559        -0.055469         0.279549
 C         1.477045         0.028957         0.077451
 C         2.072432        -1.078436        -0.881416
 C         3.234612        -1.306098         0.051794
 O         3.932646        -2.480229        -0.031754
 C         3.835569         0.049295         0.420815
 O         3.565466         1.074596        -0.480198
 C         2.041480         1.332251        -0.449203
 C         2.586782        -0.441033         1.219489
 H        -0.447432         0.538500         1.186988
 H        -0.386926         0.352593        -0.533841
 H        -0.368514        -1.128453         0.292595
 H         1.365144        -1.995470        -0.712511
 H         2.153888        -0.885383        -1.875305
 H         3.270154        -3.185630         0.112595
 H         4.831587         0.317587         0.865864
 H         1.948009         2.173229         0.274201
 H         1.729886         1.636125        -1.447229
 H         2.376782        -0.491285         2.357816
