19
Iteration:  1988
 C        -0.085636         0.150821         0.272761
 C         1.438512         0.002769        -0.026171
 C         1.968463        -1.281827        -0.849976
 C         3.196653        -1.339815        -0.046924
 O         4.058914        -2.464585        -0.008726
 C         3.724984        -0.039592         0.419900
 O         3.629169         1.177704        -0.312841
 C         2.148922         1.322325        -0.408906
 C         2.459221        -0.505355         1.112522
 H        -0.167679         0.773578         1.153200
 H        -0.581182         0.546384        -0.555584
 H        -0.460661        -0.866620         0.668274
 H         1.287406        -2.117594        -0.612757
 H         2.186205        -1.163703        -1.975871
 H         4.913569        -2.167812        -0.367820
 H         4.735291        -0.127164         0.993774
 H         1.876624         2.083954         0.431580
 H         1.953627         1.657578        -1.488258
 H         2.173394        -0.548570         2.175308
