19
Iteration:  2459charge 0 multiplicity 1
 C        -0.010625        -0.215466         0.315409
 C         1.539496         0.016148        -0.002559
 C         2.054354        -1.029729        -1.003806
 C         3.170178        -1.299807        -0.041316
 O         3.802413        -2.584774         0.165815
 C         3.805832         0.066006         0.362238
 O         3.527375         1.129762        -0.538728
 C         2.206032         1.436603        -0.239456
 C         2.531892        -0.409485         1.036471
 H        -0.210738         0.367182         1.316266
 H        -0.792708         0.135936        -0.494759
 H        -0.171944        -1.244708         0.572893
 H         1.388491        -1.973266        -1.260964
 H         2.509891        -0.607718        -1.976481
 H         4.441475        -2.494087         0.907974
 H         4.768704         0.008738         1.027113
 H         1.980323         1.976194         0.746370
 H         1.971403         2.025247        -1.134566
 H         2.403968        -0.492603         2.083845
