19
Iteration:    62
 C         0.056079         0.102339         0.313900
 C         1.524141         0.006927        -0.014093
 C         1.856019        -1.161876        -0.920651
 C         3.070267        -1.417405        -0.060981
 O         4.029464        -2.476682         0.057145
 C         3.733995        -0.047226         0.484160
 O         3.573883         1.275215        -0.158243
 C         2.236390         1.294243        -0.575027
 C         2.478534        -0.559327         1.038962
 H        -0.113518         0.898526         1.160236
 H        -0.463580         0.317800        -0.678589
 H        -0.292897        -0.741424         0.888329
 H         1.092122        -1.960363        -0.747701
 H         1.936857        -0.835219        -2.039134
 H         4.917430        -2.092181        -0.126894
 H         4.665867        -0.346283         0.857330
 H         1.667751         2.235210        -0.307496
 H         2.235132         1.091029        -1.698632
 H         2.373550        -0.760744         2.080644
