19
Iteration:   966charge 0 multiplicity 1
 C         0.018857         0.076840         0.222643
 C         1.519208         0.012905         0.002765
 C         1.885552        -1.173332        -0.891717
 C         3.147784        -1.333819        -0.044756
 O         3.998682        -2.402148        -0.059656
 C         3.691936        -0.053461         0.532358
 O         3.687417         1.084404        -0.403616
 C         2.232380         1.375224        -0.321013
 C         2.408842        -0.560007         1.094686
 H        -0.250820         0.613359         1.178840
 H        -0.512486         0.559199        -0.714154
 H        -0.454063        -0.828752         0.564536
 H         1.243813        -1.940996        -0.599232
 H         1.819983        -1.159408        -2.045233
 H         4.692497        -2.286932         0.647210
 H         4.711559        -0.171838         0.850837
 H         1.905351         2.092074         0.506980
 H         2.051186         1.838673        -1.261041
 H         2.104260        -0.572778         2.091516
