19
Iteration:  4497charge 0 multiplicity 1
 C        -0.037628         0.140166         0.318987
 C         1.545658        -0.109324         0.059655
 C         1.962301        -1.187836        -0.861495
 C         3.270942        -1.278502        -0.017842
 O         3.910855        -2.498161         0.049979
 C         3.856597         0.011561         0.422032
 O         3.518378         1.216427        -0.398501
 C         2.074924         1.229771        -0.424785
 C         2.611200        -0.488423         1.070975
 H        -0.134616         0.969963         0.953993
 H        -0.618209         0.254923        -0.686701
 H        -0.821699        -0.670521         0.683859
 H         1.429747        -2.163762        -0.487110
 H         1.755446        -0.928288        -1.910733
 H         4.287542        -2.602051        -0.831012
 H         4.809912        -0.009299         0.838655
 H         1.847275         2.106045         0.350219
 H         1.770500         1.619855        -1.345599
 H         2.541341        -0.684907         2.160174
