19
Iteration:  2133
 C        -0.013257         0.255448         0.341711
 C         1.474808         0.011644        -0.062292
 C         2.055090        -1.221584        -0.932804
 C         3.244039        -1.348008        -0.048350
 O         4.076726        -2.487966        -0.014638
 C         3.651599         0.026973         0.506483
 O         3.475805         1.081607        -0.360796
 C         2.094637         1.304172        -0.381978
 C         2.487240        -0.589971         1.083805
 H        -0.042592         1.209917         1.043143
 H        -0.510650         0.485803        -0.524379
 H        -0.453696        -0.590785         0.800744
 H         1.344693        -2.196725        -0.728275
 H         2.329543        -1.170475        -1.970213
 H         5.045185        -2.169999         0.046584
 H         4.521220         0.028547         1.036531
 H         1.921237         2.029266         0.390275
 H         1.834955         1.614431        -1.343856
 H         2.373923        -0.814746         2.128710
