19
Iteration:  1952
 C         0.016994         0.306070         0.264193
 C         1.477771        -0.037492         0.086708
 C         1.970476        -1.237015        -0.796174
 C         3.231074        -1.336215        -0.029359
 O         4.087813        -2.418252        -0.173632
 C         3.701360        -0.043580         0.539994
 O         3.539969         1.161605        -0.258414
 C         2.099787         1.151685        -0.553666
 C         2.437816        -0.551847         1.237706
 H        -0.135618         0.978226         1.045428
 H        -0.507987         0.739226        -0.676360
 H        -0.635242        -0.519998         0.476686
 H         1.379852        -2.097438        -0.771769
 H         2.226356        -1.004235        -1.954888
 H         4.971813        -2.083625        -0.297428
 H         4.653444        -0.102049         0.905851
 H         1.584239         2.093397        -0.371701
 H         2.157136         0.992379        -1.743595
 H         2.176939        -0.717968         2.272101
