19
Iteration:  2055
 C         0.046274        -0.309644         0.387527
 C         1.538893         0.046543        -0.075078
 C         2.180561        -1.024130        -1.070079
 C         3.242553        -1.362003        -0.002389
 O         3.598522        -2.602268         0.254262
 C         3.855325         0.119679         0.363595
 O         3.547277         1.218866        -0.431904
 C         2.087457         1.436763        -0.329339
 C         2.596005        -0.369084         0.992695
 H        -0.201079         0.245898         1.380810
 H        -0.711274        -0.248137        -0.273192
 H         0.211210        -1.371538         0.763393
 H         1.637180        -1.984969        -1.520360
 H         2.709204        -0.489897        -1.873188
 H         3.671873        -3.107435        -0.580984
 H         4.859485         0.178525         0.992269
 H         2.020575         1.936697         0.731566
 H         1.647048         2.100778        -1.099543
 H         2.387240        -0.384143         2.074451
