19
Iteration:   159
 C         0.050010        -0.192036         0.322073
 C         1.474420         0.032573        -0.058714
 C         2.011001        -1.071956        -1.085841
 C         3.183879        -1.269426        -0.103048
 O         3.688109        -2.501096         0.303908
 C         3.802045        -0.026553         0.412050
 O         3.657363         1.190251        -0.393107
 C         2.200981         1.412881        -0.255655
 C         2.594488        -0.444242         0.985240
 H        -0.395138         0.439607         1.163203
 H        -0.471434        -0.034237        -0.657533
 H        -0.092839        -1.230497         0.696459
 H         1.380602        -2.059698        -1.180593
 H         2.314545        -0.670601        -2.068435
 H         4.384924        -2.797987        -0.383641
 H         4.708466        -0.116343         0.874836
 H         1.851219         2.073515         0.561675
 H         1.781275         2.047934        -1.189301
 H         2.343981        -0.773187         1.980338
