19
Iteration:  1340charge 0 multiplicity 1
 C        -0.080930         0.051856         0.257380
 C         1.500827         0.000354         0.072337
 C         1.887970        -1.198056        -0.871776
 C         3.187485        -1.311151        -0.132175
 O         3.935848        -2.485710        -0.046532
 C         3.769439        -0.051919         0.454997
 O         3.626637         1.235481        -0.151861
 C         2.205025         1.280484        -0.521421
 C         2.531528        -0.468151         1.148407
 H        -0.257130         0.727096         1.054557
 H        -0.468675         0.559368        -0.709740
 H        -0.446309        -0.936741         0.583545
 H         1.239702        -1.975726        -0.853361
 H         2.054923        -0.989512        -2.001413
 H         4.799703        -2.141348        -0.157772
 H         4.804992        -0.298996         0.872672
 H         1.729102         2.257718        -0.132553
 H         2.222023         1.101185        -1.627481
 H         2.441820        -0.744374         2.218168
