19
Iteration:  4203
 C         0.014677        -0.120371         0.422442
 C         1.460800         0.042901         0.048066
 C         2.119855        -0.955240        -1.026023
 C         3.186432        -1.290916         0.019247
 O         3.802083        -2.571017         0.185026
 C         3.800896        -0.018600         0.376131
 O         3.507477         1.061612        -0.542247
 C         2.085238         1.387201        -0.395230
 C         2.635361        -0.448426         1.111521
 H        -0.168180         0.635187         1.183518
 H        -0.749025         0.076985        -0.251893
 H        -0.039267        -1.101928         0.899337
 H         1.435190        -1.716330        -1.464763
 H         2.495419        -0.316990        -1.795837
 H         4.533905        -2.580832        -0.520495
 H         4.748362         0.041635         0.959203
 H         1.804939         2.204512         0.315150
 H         1.813029         1.582654        -1.534636
 H         2.662920        -0.645227         2.209793
