19
Iteration:    58charge 0 multiplicity 1
 C         0.084435         0.132728         0.320007
 C         1.509110        -0.004035        -0.017022
 C         1.887024        -1.142326        -0.944876
 C         3.069851        -1.393825        -0.005494
 O         4.010422        -2.478735         0.042958
 C         3.745856        -0.091907         0.453454
 O         3.566304         1.305322        -0.124904
 C         2.205324         1.246118        -0.590241
 C         2.476139        -0.535007         1.019640
 H        -0.044072         0.911885         0.996193
 H        -0.489452         0.292837        -0.563675
 H        -0.314159        -0.818900         0.938656
 H         1.114355        -2.046998        -0.778758
 H         2.014896        -0.869976        -1.931097
 H         4.921361        -2.148414        -0.136142
 H         4.799169        -0.327182         0.863443
 H         1.676105         2.172025        -0.305804
 H         2.140350         1.045316        -1.728072
 H         2.356812        -0.778905         2.096387
