19
Iteration:  4923
 C        -0.033785         0.033147         0.270390
 C         1.509066         0.006735         0.069855
 C         2.049436        -1.028843        -0.951009
 C         3.166959        -1.328249        -0.032043
 O         3.981847        -2.460692         0.121988
 C         3.805760         0.034431         0.327334
 O         3.511932         1.127226        -0.432948
 C         2.108714         1.351349        -0.321556
 C         2.585162        -0.599116         1.108572
 H        -0.341493         0.817067         1.000811
 H        -0.504948         0.206747        -0.707269
 H        -0.179715        -1.056020         0.517532
 H         1.425419        -1.920486        -0.904640
 H         2.202087        -0.846402        -1.981657
 H         3.383061        -3.154521         0.466321
 H         4.900237        -0.032500         0.530372
 H         2.094589         2.150081         0.439442
 H         1.593783         1.667203        -1.231374
 H         2.374051        -0.929776         2.143746
