19
Iteration:  3316
 C        -0.031749         0.173561         0.392681
 C         1.444908        -0.015346         0.045088
 C         1.935713        -1.217193        -0.923254
 C         3.150365        -1.311338         0.019871
 O         4.161897        -2.384621         0.038673
 C         3.749723        -0.051257         0.354944
 O         3.590287         1.142147        -0.401358
 C         2.129723         1.271173        -0.466805
 C         2.502667        -0.525377         1.088666
 H        -0.309835         0.981974         1.212067
 H        -0.605057         0.447603        -0.439226
 H        -0.489757        -0.867873         0.570564
 H         1.223620        -2.171410        -0.698954
 H         2.155668        -1.191237        -2.060376
 H         3.760096        -3.284302         0.023385
 H         4.637095         0.041765         0.999790
 H         1.969078         2.181121         0.249705
 H         1.907203         1.667992        -1.403708
 H         2.290732        -0.617999         2.168628
