19
Iteration:   339
 C         0.080939        -0.094033         0.384439
 C         1.499472        -0.024326        -0.134408
 C         2.181843        -1.054932        -1.066159
 C         3.147519        -1.388947        -0.002974
 O         3.739245        -2.637211         0.202257
 C         3.787531         0.027726         0.384374
 O         3.594523         1.261562        -0.321676
 C         2.107121         1.410936        -0.355334
 C         2.527985        -0.417571         1.034451
 H        -0.132599         0.652787         1.256182
 H        -0.632561        -0.036470        -0.447964
 H        -0.029779        -1.053151         0.946179
 H         1.480703        -1.786617        -1.421070
 H         2.732790        -0.584943        -1.947369
 H         4.059999        -2.876214        -0.662719
 H         4.655633         0.006044         0.959072
 H         1.676168         1.958514         0.510122
 H         1.728989         1.858801        -1.355655
 H         2.266327        -0.441436         2.102877
