19
Iteration:  4421charge 0 multiplicity 1
 C         0.050092        -0.095911         0.526120
 C         1.480538        -0.004129         0.026503
 C         2.107956        -1.042449        -0.996096
 C         3.186975        -1.274776         0.038267
 O         3.788881        -2.555516         0.027746
 C         3.808583         0.043701         0.373103
 O         3.577224         1.139161        -0.527212
 C         2.099771         1.365296        -0.480829
 C         2.525766        -0.454632         1.092528
 H        -0.112814         0.434137         1.428620
 H        -0.676278         0.142720        -0.323570
 H        -0.259807        -1.124024         0.926388
 H         1.460063        -1.983239        -0.932427
 H         2.408753        -0.799388        -2.016672
 H         4.321351        -2.637700         0.845777
 H         4.639673        -0.004493         1.033501
 H         2.184064         2.229560         0.255631
 H         1.792023         1.778385        -1.379768
 H         2.401990        -0.624921         2.140437
