19
Iteration:  2159charge 0 multiplicity 1
 C        -0.004937         0.217377         0.319652
 C         1.485063        -0.083765         0.014484
 C         1.933587        -1.300423        -0.848466
 C         3.200955        -1.366935         0.001779
 O         4.119965        -2.402756        -0.172696
 C         3.679270        -0.004766         0.507301
 O         3.597583         1.143586        -0.346514
 C         2.122378         1.260939        -0.425184
 C         2.399681        -0.499060         1.155922
 H        -0.073022         1.087949         0.941802
 H        -0.361381         0.473782        -0.800051
 H        -0.636009        -0.639661         0.613070
 H         1.286757        -2.165107        -0.806421
 H         2.175116        -0.993633        -1.917952
 H         4.961497        -2.201155         0.370271
 H         4.660537        -0.096620         1.138008
 H         1.870627         2.166875         0.290763
 H         1.913960         1.520173        -1.511015
 H         2.069300        -0.498152         2.234407
