19
Iteration:   839
 C         0.071359         0.078585         0.210023
 C         1.508448         0.041558         0.022814
 C         2.019374        -1.082301        -0.984045
 C         3.213714        -1.337578        -0.041277
 O         3.908538        -2.536867         0.175837
 C         3.779704        -0.065894         0.436559
 O         3.521472         1.119314        -0.377923
 C         2.105943         1.392279        -0.298015
 C         2.520334        -0.541182         1.073599
 H        -0.279027         0.588788         1.059962
 H        -0.461191         0.609079        -0.593873
 H        -0.374146        -0.875969         0.131182
 H         1.354832        -1.957764        -1.044158
 H         2.261896        -0.713339        -1.982886
 H         4.450299        -2.608359        -0.668498
 H         4.731132        -0.038300         0.943742
 H         1.919430         2.109051         0.453553
 H         1.711115         1.790532        -1.272530
 H         2.316500        -0.858385         2.136863
