19
Iteration:  4224
 C         0.101583        -0.056955         0.527384
 C         1.558808        -0.016040        -0.003121
 C         2.106432        -1.049739        -1.050768
 C         3.221863        -1.275932        -0.035371
 O         3.827072        -2.607767         0.204961
 C         3.772567         0.090418         0.422495
 O         3.510725         1.166645        -0.527289
 C         2.098512         1.393055        -0.386645
 C         2.507741        -0.512143         1.051279
 H        -0.278128         0.620413         1.193689
 H        -0.524557         0.191920        -0.328516
 H        -0.126206        -1.138220         0.724942
 H         1.376726        -1.969093        -1.053293
 H         2.282145        -0.743319        -2.025493
 H         4.076102        -2.937967        -0.627182
 H         4.739630         0.247551         0.948875
 H         1.923558         2.180710         0.397007
 H         1.764019         1.699836        -1.480056
 H         2.090193        -0.771433         2.063720
