19
Iteration:  3456charge 0 multiplicity 1
 C         0.082099        -0.068305         0.345460
 C         1.506677        -0.014399         0.078198
 C         2.089114        -0.918439        -1.023504
 C         3.200022        -1.296586        -0.002517
 O         3.902739        -2.516341         0.214437
 C         3.839612        -0.008174         0.394915
 O         3.425478         1.075812        -0.627217
 C         2.098038         1.389896        -0.345240
 C         2.576978        -0.549747         1.099817
 H        -0.256499         0.421597         1.216568
 H        -0.528574         0.390746        -0.449387
 H        -0.303495        -1.151758         0.343771
 H         1.608182        -1.748445        -1.287566
 H         2.384292        -0.271333        -1.845052
 H         3.365779        -3.232254         0.711960
 H         4.779825        -0.069907         0.898170
 H         1.970500         2.067227         0.465770
 H         1.619758         1.968486        -1.280822
 H         2.537480        -0.545585         2.215407
