19
Iteration:  4856
 C        -0.015054         0.104215         0.415864
 C         1.512676        -0.012512         0.063715
 C         2.025918        -1.069033        -0.979085
 C         3.242250        -1.290515        -0.103755
 O         4.003115        -2.454901         0.060587
 C         3.735052         0.031080         0.464666
 O         3.592356         1.148402        -0.313975
 C         2.090476         1.230043        -0.543993
 C         2.511868        -0.565256         1.168950
 H        -0.117843         0.846539         1.193149
 H        -0.569878         0.484043        -0.502070
 H        -0.523855        -0.965026         0.622447
 H         1.462699        -2.028158        -1.028928
 H         1.981525        -0.880150        -2.000965
 H         3.539041        -3.186229        -0.398048
 H         4.694213        -0.081653         0.890243
 H         1.678785         2.191201        -0.138837
 H         2.021680         1.289359        -1.600433
 H         2.216630        -0.702872         2.146286
