19
Iteration:  1768
 C         0.038829         0.343533         0.446915
 C         1.462887        -0.111034        -0.034317
 C         1.962391        -1.288057        -0.970330
 C         3.188643        -1.313473        -0.037744
 O         4.018720        -2.402581        -0.057537
 C         3.678107         0.032957         0.551485
 O         3.532865         1.241491        -0.156763
 C         2.202413         1.125768        -0.655618
 C         2.478348        -0.624703         1.115556
 H         0.031175         1.276586         0.954932
 H        -0.621403         0.327685        -0.492490
 H        -0.405787        -0.604446         0.978661
 H         1.434148        -2.179855        -0.827908
 H         2.104490        -1.127339        -2.054102
 H         4.922718        -2.255440        -0.443402
 H         4.614157        -0.042403         1.165165
 H         1.489699         2.050887        -0.466527
 H         2.293840         1.038486        -1.678242
 H         2.307701        -0.690937         2.265345
