19
Iteration:  3960
 C        -0.030580         0.008959         0.424325
 C         1.451135        -0.009060         0.060973
 C         1.965933        -1.128698        -0.923579
 C         3.183489        -1.269084        -0.038349
 O         4.002878        -2.457669         0.010380
 C         3.775257        -0.049362         0.324256
 O         3.569926         1.190311        -0.326012
 C         2.157416         1.303323        -0.520743
 C         2.576394        -0.451307         1.151296
 H        -0.117040         0.676407         1.256739
 H        -0.594853         0.228087        -0.542698
 H        -0.514670        -1.085377         0.694526
 H         1.229100        -2.074417        -0.981153
 H         2.094992        -0.919155        -1.955633
 H         3.672822        -3.082447         0.679732
 H         4.839348        -0.141636         0.720523
 H         1.827148         2.281921        -0.223418
 H         2.017994         1.393885        -1.598832
 H         2.575662        -0.654465         2.218563
