19
Iteration:   426charge 0 multiplicity 1
 C         0.067057         0.160605         0.317115
 C         1.552218        -0.035229        -0.030415
 C         2.109056        -1.117200        -0.940625
 C         3.238626        -1.372497         0.075690
 O         3.951938        -2.547252        -0.102541
 C         3.705875        -0.052721         0.508651
 O         3.471305         1.115342        -0.341166
 C         2.106248         1.388750        -0.462449
 C         2.375391        -0.544462         1.154887
 H         0.102797         1.004341         1.149921
 H        -0.564797         0.619113        -0.491533
 H        -0.469169        -0.729292         0.680496
 H         1.436963        -1.942999        -0.766270
 H         2.479948        -1.022228        -1.989671
 H         4.853038        -2.406918         0.314351
 H         4.623453         0.182699         1.044963
 H         1.885112         2.285254         0.038532
 H         2.020476         1.497614        -1.669703
 H         2.137887        -0.520594         2.266313
