19
Iteration:  4032charge 0 multiplicity 1
 C         0.003306        -0.059281         0.355145
 C         1.522416        -0.016860         0.115016
 C         2.070952        -1.026199        -1.013272
 C         3.222581        -1.288960        -0.021463
 O         3.848103        -2.613591         0.271552
 C         3.820409         0.016318         0.287927
 O         3.486455         1.166269        -0.561362
 C         2.081200         1.363523        -0.304989
 C         2.645032        -0.471579         1.083013
 H        -0.114001         0.823674         1.115240
 H        -0.638036         0.120949        -0.542824
 H        -0.393759        -0.890121         0.789003
 H         1.317157        -1.690619        -1.278985
 H         2.314385        -0.480923        -1.985234
 H         4.246398        -2.888576        -0.616980
 H         4.870801         0.085683         0.748544
 H         1.783390         2.237633         0.418016
 H         1.473099         1.625586        -1.235985
 H         2.534663        -0.800718         2.171257
