19
Iteration:  3780
 C        -0.024323        -0.006635         0.427183
 C         1.442245         0.019542         0.040336
 C         1.968736        -1.090684        -0.964111
 C         3.147128        -1.320207        -0.023648
 O         4.089344        -2.424749         0.077402
 C         3.752807        -0.031402         0.383622
 O         3.627051         1.107759        -0.401230
 C         2.132686         1.322600        -0.492594
 C         2.515649        -0.511516         1.114456
 H        -0.278750         0.814185         1.214403
 H        -0.606018         0.421294        -0.408987
 H        -0.435115        -0.937350         0.577834
 H         1.180459        -1.866257        -1.074045
 H         2.235027        -0.817949        -1.995976
 H         3.541290        -3.217956         0.213957
 H         4.777167         0.019413         0.925217
 H         1.906871         2.102578         0.245391
 H         1.733865         1.650824        -1.578330
 H         2.413699        -0.483205         2.194809
