19
Iteration:  2323charge 0 multiplicity 1
 C         0.019098         0.138483         0.222613
 C         1.513802        -0.021726         0.030748
 C         2.045450        -1.225168        -0.844831
 C         3.279998        -1.283947        -0.049989
 O         3.900677        -2.600850        -0.087829
 C         3.784644         0.024351         0.521067
 O         3.500679         1.267355        -0.196462
 C         2.099735         1.270960        -0.523098
 C         2.512868        -0.491904         1.124019
 H        -0.160046         0.759077         1.072925
 H        -0.672518         0.453441        -0.684850
 H        -0.365461        -0.880563         0.513632
 H         1.403145        -2.058070        -0.612164
 H         2.127772        -1.089306        -2.029870
 H         4.794941        -2.415480         0.120292
 H         4.797638         0.104432         1.008763
 H         1.611448         2.197152        -0.179930
 H         1.791323         1.223977        -1.588208
 H         2.319894        -0.696839         2.122291
