19
Iteration:  3724charge 0 multiplicity 1
 C        -0.069291         0.217705         0.251992
 C         1.438063        -0.052245         0.082959
 C         1.957557        -1.263875        -0.819567
 C         3.235632        -1.306074        -0.016553
 O         4.107613        -2.404710        -0.114412
 C         3.801190        -0.005865         0.415747
 O         3.538868         1.169623        -0.311011
 C         2.191078         1.208854        -0.487217
 C         2.506147        -0.482643         1.227668
 H        -0.216294         0.999353         1.165680
 H        -0.483271         0.481285        -0.690200
 H        -0.576608        -0.545130         0.744830
 H         1.382038        -2.192442        -0.696987
 H         2.029767        -1.087635        -1.934568
 H         3.461245        -3.202547        -0.207914
 H         4.715248         0.174152         0.995811
 H         1.742255         2.142470        -0.099428
 H         1.721196         1.165605        -1.650519
 H         2.307876        -0.765045         2.277029
