19
Iteration:  3239
 C         0.174261        -0.364326         0.399361
 C         1.551982         0.076917        -0.023237
 C         2.051565        -1.018845        -0.999857
 C         3.176109        -1.279072        -0.037328
 O         3.685595        -2.563377         0.208120
 C         3.827506         0.059229         0.326165
 O         3.586842         1.185343        -0.461795
 C         2.069052         1.449985        -0.359944
 C         2.590171        -0.364897         0.967723
 H        -0.330381         0.208103         1.337248
 H        -0.521248        -0.317798        -0.407883
 H         0.173219        -1.434552         0.839879
 H         1.253071        -1.855222        -0.830199
 H         2.218915        -0.744617        -2.100403
 H         3.417771        -2.950752         1.014313
 H         4.859764         0.002655         0.741896
 H         2.003874         2.314455         0.444272
 H         1.772223         1.742701        -1.327952
 H         2.642230        -0.423038         2.020041
