19
Iteration:  2685charge 0 multiplicity 1
 C         0.051645        -0.114029         0.446692
 C         1.487110         0.005382         0.057042
 C         2.082477        -1.038429        -1.017388
 C         3.226815        -1.317995        -0.001921
 O         3.885118        -2.570237         0.183349
 C         3.839858         0.015044         0.331109
 O         3.508527         1.180760        -0.542128
 C         2.080313         1.388327        -0.388943
 C         2.547580        -0.413342         1.113449
 H        -0.309935         0.502144         1.222888
 H        -0.550589         0.031412        -0.503895
 H        -0.104836        -1.193316         0.748225
 H         1.340136        -1.750025        -1.283158
 H         2.515459        -0.554000        -1.970649
 H         3.211166        -3.288763         0.059161
 H         4.811334        -0.020819         0.813962
 H         1.772535         2.118364         0.398839
 H         1.810367         1.711083        -1.412921
 H         2.557516        -0.426999         2.143684
