19
Iteration:  2888charge 0 multiplicity 1
 C         0.023724        -0.018505         0.259909
 C         1.550695        -0.053349         0.089230
 C         2.007472        -1.159711        -0.872754
 C         3.241366        -1.340068         0.024084
 O         3.940613        -2.552671         0.054691
 C         3.800047         0.074440         0.362663
 O         3.501155         1.171291        -0.498224
 C         2.114840         1.406735        -0.403023
 C         2.572082        -0.383186         1.183432
 H        -0.308696         0.562487         1.193977
 H        -0.522520         0.274397        -0.559843
 H        -0.247660        -1.052681         0.469775
 H         1.273096        -2.043338        -0.854839
 H         2.120670        -0.888686        -1.862036
 H         3.401214        -3.383893        -0.201232
 H         4.722347         0.235917         0.875008
 H         1.769241         2.072168         0.406247
 H         1.668077         1.764996        -1.368589
 H         2.479900        -0.557489         2.229658
