19
Iteration:  1787
 C         0.094725         0.163153         0.356533
 C         1.508600        -0.031348         0.029126
 C         1.970813        -1.201221        -0.866108
 C         3.229745        -1.326415        -0.069168
 O         3.984461        -2.486337        -0.036199
 C         3.725732        -0.001835         0.476409
 O         3.470009         1.202108        -0.171550
 C         2.142861         1.260922        -0.647124
 C         2.459215        -0.522559         1.075756
 H         0.266170         1.006564         1.000451
 H        -0.551076         0.441037        -0.584753
 H        -0.403773        -0.590016         0.934336
 H         1.341528        -2.047648        -0.723225
 H         2.003721        -1.009066        -1.985343
 H         4.931234        -2.261475         0.271521
 H         4.778882        -0.131645         1.021299
 H         1.613593         2.138704        -0.215646
 H         2.101143         1.095931        -1.741140
 H         2.200091        -0.988268         2.041159
