19
Iteration:   924
 C         0.005403         0.028653         0.331073
 C         1.520750        -0.091277         0.018626
 C         2.180081        -1.012347        -1.037047
 C         3.203829        -1.309786        -0.012687
 O         3.692197        -2.685582         0.039830
 C         3.815620         0.058254         0.393629
 O         3.546211         1.246477        -0.304712
 C         2.115296         1.271059        -0.390568
 C         2.571828        -0.480698         1.127067
 H        -0.123248         0.902108         0.912847
 H        -0.492249         0.246536        -0.703095
 H        -0.420509        -0.759542         0.907883
 H         1.570040        -1.793703        -1.311916
 H         2.580681        -0.485699        -1.981813
 H         4.624564        -2.647602         0.156294
 H         4.775909         0.060895         0.893925
 H         1.884430         2.082527         0.375666
 H         1.658771         1.544229        -1.424083
 H         2.302922        -0.504814         2.210058
