19
Iteration:  3838charge 0 multiplicity 1
 C         0.061774        -0.167871         0.424292
 C         1.507200         0.053251        -0.037311
 C         2.147762        -1.077850        -0.992423
 C         3.198092        -1.371254         0.021122
 O         3.744700        -2.672766         0.103005
 C         3.850321         0.042393         0.382276
 O         3.527311         1.301354        -0.536692
 C         2.053893         1.391948        -0.324616
 C         2.616946        -0.393655         1.032096
 H        -0.206714         0.480252         1.137229
 H        -0.559841        -0.078247        -0.538178
 H        -0.101804        -1.152058         0.967778
 H         1.554458        -2.038904        -1.192759
 H         2.561346        -0.683043        -1.825981
 H         3.351896        -2.887254         0.999683
 H         4.822387         0.043945         0.730485
 H         1.941433         2.112191         0.584320
 H         1.624666         1.928102        -1.185923
 H         2.563842        -0.310723         2.140833
