19
Iteration:   774charge 0 multiplicity 1
 C         0.070888        -0.037712         0.327852
 C         1.523125         0.105762         0.017061
 C         1.915383        -1.116473        -0.967021
 C         3.095535        -1.357758        -0.071476
 O         3.981322        -2.504474        -0.001412
 C         3.704213        -0.033903         0.473854
 O         3.615177         1.172328        -0.248779
 C         2.260508         1.342191        -0.501631
 C         2.411056        -0.480339         1.091307
 H        -0.164960         0.802207         1.069375
 H        -0.570895        -0.075537        -0.570653
 H        -0.080118        -0.984385         0.782336
 H         1.246300        -1.975249        -0.944441
 H         2.101781        -0.819030        -1.994093
 H         4.479178        -2.506360         0.779132
 H         4.690097        -0.052105         0.924304
 H         1.852670         2.332427        -0.049049
 H         2.104143         1.447963        -1.597792
 H         2.167949        -0.721260         2.120194
