19
Iteration:  1139charge 0 multiplicity 1
 C         0.055958         0.063082         0.245279
 C         1.549165         0.045122         0.009930
 C         2.004653        -1.212004        -0.884303
 C         3.219465        -1.360284        -0.075769
 O         3.879931        -2.569684         0.031820
 C         3.732175         0.013291         0.449635
 O         3.522794         1.197654        -0.255423
 C         2.166076         1.394436        -0.410230
 C         2.503862        -0.540001         1.039369
 H        -0.100231         0.778722         1.164401
 H        -0.525664         0.408958        -0.594092
 H        -0.342547        -0.910579         0.404241
 H         1.219319        -1.984378        -0.637574
 H         2.015599        -0.867360        -1.920890
 H         4.820149        -2.487741        -0.197580
 H         4.712105         0.024667         0.954088
 H         1.893892         2.265136         0.274323
 H         2.030185         1.683936        -1.524908
 H         2.192440        -0.613600         2.128011
