19
Iteration:  3207
 C         0.032250        -0.061329         0.445365
 C         1.477059        -0.010270        -0.007554
 C         2.080303        -1.005628        -1.009600
 C         3.206416        -1.371452         0.027149
 O         3.931008        -2.514758         0.126759
 C         3.770346         0.075128         0.370238
 O         3.541807         1.166392        -0.451609
 C         2.075820         1.314851        -0.432695
 C         2.552742        -0.472391         1.032473
 H        -0.166283         0.834325         1.247197
 H        -0.626567         0.065021        -0.354325
 H        -0.128992        -1.099000         0.908958
 H         1.332250        -1.899499        -1.188299
 H         2.295713        -0.664697        -2.038108
 H         3.466337        -3.118966         0.793851
 H         4.827600        -0.089569         0.669825
 H         1.895821         2.178645         0.288450
 H         1.755518         1.577634        -1.380338
 H         2.585269        -0.639489         2.096704
