19
Iteration:  3656charge 0 multiplicity 1
 C         0.065928        -0.105320         0.444943
 C         1.492388        -0.008154        -0.048167
 C         2.120331        -1.070477        -1.078335
 C         3.253507        -1.270515         0.004244
 O         3.850102        -2.548678         0.148456
 C         3.793817         0.029223         0.396032
 O         3.512089         1.142965        -0.487886
 C         2.132352         1.392653        -0.373753
 C         2.511468        -0.478765         1.038691
 H         0.041746         0.578393         1.410475
 H        -0.782243         0.107228        -0.100291
 H        -0.103964        -1.074043         0.978396
 H         1.442456        -1.855417        -1.317226
 H         2.464912        -0.747332        -2.085202
 H         3.187606        -3.049775         0.608930
 H         4.626387         0.218523         1.047279
 H         1.857805         2.066800         0.441974
 H         1.748216         2.024223        -1.337509
 H         2.426116        -0.449101         2.125633
