19
Iteration:  2202charge 0 multiplicity 1
 C         0.060735        -0.076544         0.284373
 C         1.533822         0.026212         0.120010
 C         2.031011        -1.107904        -0.910666
 C         3.206247        -1.336281        -0.017337
 O         3.806169        -2.616574        -0.045355
 C         3.752781         0.113987         0.498890
 O         3.561188         1.276820        -0.287111
 C         2.145836         1.340149        -0.549764
 C         2.528435        -0.496659         1.112911
 H        -0.362904         0.521904         1.083997
 H        -0.471896         0.243242        -0.699759
 H        -0.170041        -1.113383         0.505885
 H         1.349559        -1.985771        -0.741869
 H         2.117165        -0.914551        -2.028115
 H         4.809932        -2.512107        -0.022175
 H         4.755705         0.066567         1.101563
 H         1.735730         2.180226         0.034600
 H         1.989617         1.352600        -1.614640
 H         2.395945        -0.760149         2.198297
