19
Iteration:  3527charge 0 multiplicity 1
 C         0.044171         0.181408         0.469636
 C         1.477623        -0.000289        -0.025536
 C         1.943515        -1.213339        -0.897267
 C         3.232166        -1.340440        -0.032876
 O         4.107982        -2.358997         0.031695
 C         3.750194        -0.078116         0.450012
 O         3.541146         1.176884        -0.289127
 C         2.144235         1.267292        -0.603497
 C         2.459380        -0.558857         1.075595
 H        -0.119559         1.333982         0.841806
 H        -0.656045         0.146229        -0.391244
 H        -0.352539        -0.606141         1.078567
 H         1.229206        -2.138923        -0.736298
 H         2.061581        -0.961426        -2.000096
 H         3.635397        -3.246194        -0.083565
 H         4.784006        -0.085575         0.961293
 H         1.514752         2.149821        -0.280014
 H         1.874682         1.206254        -1.655868
 H         2.178259        -0.775343         2.111754
