19
Iteration:   783charge 0 multiplicity 1
 C         0.123458         0.023798         0.325425
 C         1.547037         0.025121        -0.027076
 C         1.980895        -1.089206        -0.970454
 C         3.124813        -1.384854        -0.009277
 O         3.942965        -2.496259        -0.038910
 C         3.662823        -0.048460         0.472974
 O         3.559526         1.176647        -0.251395
 C         2.194842         1.319804        -0.487417
 C         2.446394        -0.517003         1.130095
 H        -0.022482         0.840088         0.911821
 H        -0.435649         0.210717        -0.617420
 H        -0.190774        -0.780696         0.879446
 H         1.298741        -1.866637        -0.980619
 H         2.254315        -0.824987        -2.013855
 H         4.479018        -2.344468         0.713135
 H         4.650646        -0.060942         0.982875
 H         1.851885         2.187353        -0.011764
 H         1.962126         1.381762        -1.634084
 H         2.284256        -0.389444         2.160023
