19
Iteration:   978charge 0 multiplicity 1
 C        -0.039875         0.151689         0.280744
 C         1.431248        -0.004760        -0.079194
 C         1.921151        -1.256749        -0.921461
 C         3.150337        -1.302846         0.003343
 O         3.984471        -2.373489        -0.113695
 C         3.770236        -0.072974         0.509625
 O         3.658517         1.055110        -0.345865
 C         2.224150         1.291431        -0.361450
 C         2.468457        -0.495166         1.171362
 H        -0.169358         0.881556         1.066108
 H        -0.637473         0.657540        -0.644911
 H        -0.431618        -0.821281         0.280179
 H         1.326536        -2.078520        -0.825174
 H         2.168628        -0.960974        -2.017281
 H         4.690619        -2.249782         0.478191
 H         4.563882        -0.138117         1.234451
 H         2.071777         1.990827         0.527660
 H         1.853750         1.770420        -1.285141
 H         2.306888        -0.497133         2.251894
