19
Iteration:  1111charge 0 multiplicity 1
 C        -0.031654        -0.008792         0.228801
 C         1.497781        -0.066935         0.052330
 C         2.179213        -1.000332        -0.987314
 C         3.247623        -1.293426         0.049608
 O         3.723082        -2.593186         0.084498
 C         3.890042         0.042844         0.481775
 O         3.544381         1.163691        -0.439159
 C         2.087279         1.300163        -0.353186
 C         2.565894        -0.518386         1.134381
 H        -0.318258         0.689080         1.006299
 H        -0.596108         0.572407        -0.632617
 H        -0.542754        -0.954382         0.532575
 H         1.664458        -1.876063        -1.282705
 H         2.318700        -0.273612        -1.870733
 H         4.248318        -2.733134        -0.681352
 H         4.862620         0.134331         0.978619
 H         1.896488         2.058306         0.403699
 H         1.802679         1.601590        -1.314896
 H         2.285480        -0.622193         2.221154
