19
Iteration:    29charge 0 multiplicity 1
 C         0.036898         0.177446         0.386042
 C         1.483342        -0.059965        -0.035347
 C         2.075801        -1.223733        -0.972392
 C         3.299023        -1.292785        -0.036020
 O         3.844813        -2.620483         0.002695
 C         3.704853         0.055994         0.624045
 O         3.507184         1.271824        -0.228209
 C         2.154550         1.296219        -0.563094
 C         2.520484        -0.548485         1.026597
 H         0.074706         1.218610         0.870349
 H        -0.733379         0.336147        -0.425950
 H        -0.443274        -0.623277         0.945776
 H         1.573673        -2.212487        -0.824159
 H         2.173377        -1.023872        -2.099823
 H         4.710707        -2.717095        -0.313591
 H         4.698183         0.082540         1.040634
 H         1.697006         2.261364        -0.196213
 H         1.996673         1.348275        -1.673146
 H         2.453329        -0.755911         2.090120
