19
Iteration:  3829charge 0 multiplicity 1
 C         0.124254        -0.135286         0.410328
 C         1.540946        -0.013347         0.002930
 C         2.123731        -1.083754        -1.030720
 C         3.194537        -1.328913        -0.010801
 O         3.747474        -2.694644         0.162472
 C         3.850862         0.094429         0.316960
 O         3.478837         1.281644        -0.502273
 C         2.105753         1.427884        -0.281867
 C         2.582159        -0.386691         0.973882
 H        -0.161823         0.662384         1.000971
 H        -0.634788        -0.066544        -0.388839
 H        -0.006696        -1.205932         0.837448
 H         1.477242        -2.002967        -1.037325
 H         2.565698        -0.704326        -2.014596
 H         3.383595        -3.181716         0.950047
 H         4.781151         0.120334         0.815130
 H         1.817048         2.010580         0.717704
 H         1.606138         1.712420        -1.139800
 H         2.421725        -0.429986         2.072683
