19
Iteration:   890
 C         0.094682        -0.176227         0.379674
 C         1.539758         0.120136        -0.052738
 C         2.133676        -0.961820        -1.089891
 C         3.261418        -1.322344        -0.078140
 O         3.679102        -2.638049         0.206350
 C         3.764374         0.043469         0.478792
 O         3.564515         1.147793        -0.338904
 C         2.164099         1.435526        -0.360816
 C         2.511798        -0.515438         1.008437
 H        -0.177528         0.610511         1.086603
 H        -0.743549        -0.108240        -0.445713
 H        -0.159395        -1.175481         0.738817
 H         1.450065        -1.731905        -0.983280
 H         2.304309        -0.791794        -2.225418
 H         4.234197        -2.920770        -0.506806
 H         4.723995         0.208999         0.973510
 H         1.910231         2.262026         0.429061
 H         1.879052         1.878457        -1.392457
 H         2.178051        -0.674873         1.986138
