19
Iteration:  4477
 C         0.027849         0.168464         0.313964
 C         1.498691        -0.032454         0.048618
 C         1.995920        -1.308831        -0.829697
 C         3.218739        -1.374425        -0.026892
 O         3.956592        -2.586515        -0.002568
 C         3.752243         0.040552         0.372857
 O         3.482611         1.222751        -0.388958
 C         2.064987         1.373059        -0.402975
 C         2.599769        -0.487710         1.103162
 H        -0.117623         1.024142         1.009853
 H        -0.689687         0.379032        -0.499246
 H        -0.298540        -0.741221         0.728975
 H         1.307284        -2.089410        -0.694204
 H         2.232274        -1.089937        -1.926168
 H         4.913941        -2.509287        -0.376435
 H         4.705092         0.015903         0.829756
 H         2.006238         2.314385         0.333719
 H         1.743676         1.672830        -1.374850
 H         2.405297        -0.512143         2.239837
