19
Iteration:  3342charge 0 multiplicity 1
 C         0.084787         0.185708         0.311661
 C         1.494254        -0.047275         0.021069
 C         1.867075        -1.299526        -0.784767
 C         3.181521        -1.352823        -0.027094
 O         4.194190        -2.379138        -0.139968
 C         3.692957        -0.050327         0.487106
 O         3.526656         1.147163        -0.286290
 C         2.111438         1.275670        -0.560317
 C         2.479456        -0.432752         1.200184
 H         0.062093         1.057106         0.986782
 H        -0.436929         0.609836        -0.664256
 H        -0.470823        -0.612904         0.668992
 H         1.234865        -2.103049        -0.415158
 H         1.959727        -1.364810        -1.824449
 H         3.775068        -3.294946        -0.259918
 H         4.634508        -0.131949         1.042933
 H         1.756811         2.260347        -0.089542
 H         1.970552         1.474241        -1.682214
 H         2.191287        -0.330148         2.239504
