19
Iteration:  1098
 C        -0.016948        -0.054156         0.274361
 C         1.515573        -0.001121         0.041572
 C         2.188251        -0.926891        -1.025485
 C         3.213260        -1.331777         0.002641
 O         3.764308        -2.581565         0.182277
 C         3.759789         0.043984         0.387016
 O         3.519900         1.093403        -0.418860
 C         2.143690         1.356308        -0.297286
 C         2.551070        -0.503019         1.077145
 H        -0.220083         0.658385         1.146539
 H        -0.513615         0.183795        -0.788151
 H        -0.385717        -1.047123         0.470090
 H         1.563003        -1.654902        -1.474218
 H         2.968951        -0.504343        -1.837558
 H         3.961679        -2.940218        -0.740926
 H         4.725894         0.082210         0.908239
 H         1.902885         2.092621         0.514666
 H         1.790678         1.749733        -1.186003
 H         2.533233        -0.620144         2.217963
