19
Iteration:  2274
 C        -0.007888        -0.102469         0.276498
 C         1.478888         0.048099        -0.029518
 C         2.099621        -0.922990        -1.068923
 C         3.178463        -1.310205        -0.024383
 O         3.957396        -2.479981         0.299035
 C         3.775701        -0.054411         0.347914
 O         3.531935         1.056379        -0.441168
 C         2.143974         1.413083        -0.244187
 C         2.502239        -0.520411         1.050790
 H        -0.534296         0.524667         1.115530
 H        -0.461866         0.207979        -0.605120
 H        -0.315432        -1.154995         0.349955
 H         1.330169        -1.742727        -1.182290
 H         2.365008        -0.511744        -1.970699
 H         4.182640        -2.838025        -0.634724
 H         4.710267        -0.038602         0.854005
 H         2.010553         2.008388         0.744880
 H         1.748118         1.848762        -1.198005
 H         2.224584        -0.939622         2.066418
