19
Iteration:  4422
 C         0.041489        -0.102083         0.531365
 C         1.474258        -0.008245         0.024419
 C         2.103338        -1.045260        -0.997724
 C         3.182559        -1.264715         0.027913
 O         3.790800        -2.545135         0.028443
 C         3.811006         0.035082         0.376921
 O         3.579019         1.134898        -0.528983
 C         2.109994         1.367278        -0.478199
 C         2.525136        -0.461703         1.099560
 H        -0.131256         0.486648         1.452952
 H        -0.656584         0.130444        -0.300702
 H        -0.280150        -1.090409         0.889522
 H         1.501032        -1.954905        -0.940084
 H         2.414430        -0.792571        -2.026973
 H         4.348755        -2.630949         0.868393
 H         4.648283        -0.000735         1.011224
 H         2.159948         2.194758         0.209365
 H         1.826006         1.790072        -1.404968
 H         2.411395        -0.618861         2.180741
