19
Iteration:  4471
 C         0.045055         0.149345         0.324351
 C         1.556993        -0.003668         0.054545
 C         1.998321        -1.265805        -0.835741
 C         3.221494        -1.410587         0.002852
 O         3.970845        -2.578823        -0.003700
 C         3.714971         0.002222         0.370862
 O         3.477937         1.228837        -0.412577
 C         2.082528         1.422824        -0.413703
 C         2.553887        -0.529662         1.096357
 H        -0.049355         0.912204         1.150558
 H        -0.676511         0.266154        -0.486172
 H        -0.414449        -0.796221         0.799540
 H         1.232124        -2.101576        -0.722953
 H         2.119385        -0.994665        -1.878385
 H         4.880620        -2.377920        -0.142556
 H         4.764281        -0.035680         0.807269
 H         1.919293         2.263209         0.197572
 H         1.689689         1.743302        -1.452306
 H         2.411475        -0.466566         2.147431
