19
Iteration:  3186charge 0 multiplicity 1
 C         0.030262         0.153005         0.398375
 C         1.507840        -0.001517         0.031298
 C         2.056636        -1.198529        -0.970384
 C         3.233598        -1.377319        -0.004646
 O         4.120368        -2.492136         0.052840
 C         3.732209        -0.040951         0.400498
 O         3.439630         1.142626        -0.441496
 C         2.058124         1.346315        -0.443134
 C         2.476098        -0.458239         1.121943
 H        -0.109588         1.048482         1.192959
 H        -0.455946         0.497127        -0.420313
 H        -0.522712        -0.721170         0.871386
 H         1.513141        -2.234681        -1.049868
 H         2.256995        -0.891176        -1.959816
 H         3.580379        -3.268529         0.027002
 H         4.755055         0.073594         0.911470
 H         1.816435         2.073548         0.340281
 H         1.740614         1.654493        -1.382895
 H         2.472028        -0.519266         2.232730
