19
Iteration:  1132charge 0 multiplicity 1
 C         0.070069         0.054790         0.241862
 C         1.538833         0.042910         0.027306
 C         2.051084        -1.146797        -0.901849
 C         3.238661        -1.322931        -0.069889
 O         3.822622        -2.599734         0.028746
 C         3.735241         0.055708         0.485564
 O         3.533588         1.163665        -0.306690
 C         2.122332         1.365619        -0.399667
 C         2.535258        -0.512810         1.083896
 H        -0.345534         0.680364         1.063422
 H        -0.480272         0.611368        -0.662345
 H        -0.341178        -0.934648         0.490514
 H         1.354868        -1.933051        -0.765925
 H         2.226275        -1.128935        -2.114409
 H         4.756682        -2.620378        -0.360748
 H         4.645051         0.088921         1.086687
 H         1.756473         2.169673         0.289025
 H         1.907713         1.600509        -1.393218
 H         2.457100        -0.802588         2.167666
