19
Iteration:  4127
 C         0.048106         0.197326         0.395297
 C         1.467468        -0.059624         0.133770
 C         1.956432        -1.195020        -0.934718
 C         3.205781        -1.341086         0.028451
 O         3.993495        -2.500034        -0.066525
 C         3.736043        -0.035476         0.398828
 O         3.523714         1.202314        -0.361320
 C         2.102404         1.239902        -0.574543
 C         2.564803        -0.524890         1.168083
 H        -0.031867         1.081244         1.136453
 H        -0.561699         0.465355        -0.440404
 H        -0.470574        -0.722255         0.796393
 H         1.398445        -2.159672        -1.014654
 H         2.117975        -0.903100        -2.038246
 H         4.786736        -2.398918         0.403317
 H         4.660630         0.177534         0.947757
 H         1.683858         2.108826        -0.038074
 H         1.738083         1.459016        -1.652321
 H         2.567622        -0.529978         2.316968
