19
Iteration:   895charge 0 multiplicity 1
 C         0.105430        -0.121945         0.360853
 C         1.550959         0.068917        -0.075604
 C         2.193873        -0.971843        -1.078331
 C         3.269744        -1.277926        -0.086159
 O         3.614529        -2.645837         0.175530
 C         3.790417         0.066747         0.537370
 O         3.528452         1.141741        -0.350221
 C         2.102684         1.447062        -0.383702
 C         2.563983        -0.563401         1.013080
 H        -0.172649         0.597900         1.167771
 H        -0.548746        -0.064502        -0.453554
 H        -0.079101        -1.046059         0.958929
 H         1.399870        -1.822484        -0.967022
 H         2.360087        -0.809360        -2.107237
 H         4.358109        -2.856272        -0.482108
 H         4.712332         0.154626         1.103223
 H         1.973539         2.206340         0.312881
 H         1.715621         1.806482        -1.348245
 H         2.199395        -0.679743         2.118564
