19
Iteration:  4320charge 0 multiplicity 1
 C         0.015186         0.112730         0.441917
 C         1.514267        -0.041525        -0.028913
 C         2.053753        -1.185505        -0.894242
 C         3.202263        -1.395868         0.108647
 O         3.989827        -2.492327        -0.108605
 C         3.658735         0.007256         0.458491
 O         3.578867         1.120949        -0.452182
 C         2.087483         1.293857        -0.484045
 C         2.450262        -0.456093         1.160090
 H        -0.107829         1.031040         1.015675
 H        -0.762264         0.550108        -0.375259
 H        -0.360198        -0.818138         1.149266
 H         1.373738        -2.191421        -0.982954
 H         2.376162        -0.892186        -1.908718
 H         4.888381        -2.184497        -0.259553
 H         4.627999         0.113831         1.032204
 H         1.954234         2.043712         0.296539
 H         1.955686         1.672156        -1.437223
 H         2.306791        -0.217512         2.248432
