19
Iteration:  1967
 C         0.081204         0.253302         0.231985
 C         1.505449        -0.084727         0.028762
 C         1.909976        -1.283707        -0.847250
 C         3.183752        -1.343737         0.025533
 O         4.111982        -2.419012        -0.158485
 C         3.667949        -0.008415         0.572612
 O         3.509491         1.112649        -0.268498
 C         2.148828         1.274798        -0.545944
 C         2.464391        -0.515989         1.161451
 H        -0.040641         0.928677         1.117635
 H        -0.239358         0.725368        -0.639947
 H        -0.613687        -0.618976         0.507548
 H         1.246971        -2.068129        -0.412817
 H         1.826602        -1.248263        -1.917405
 H         4.935034        -2.030239        -0.447423
 H         4.614181         0.131033         1.226679
 H         1.892332         2.127648         0.150858
 H         1.827706         1.330053        -1.536770
 H         2.208880        -0.685771         2.212391
