19
Iteration:  1138charge 0 multiplicity 1
 C         0.057286         0.064245         0.240816
 C         1.549635         0.047978         0.014865
 C         2.017627        -1.203511        -0.888540
 C         3.220262        -1.355300        -0.079157
 O         3.872833        -2.573758         0.030373
 C         3.730494         0.023068         0.455376
 O         3.521021         1.190945        -0.262533
 C         2.160449         1.391022        -0.405123
 C         2.508473        -0.537255         1.045703
 H        -0.132132         0.757807         1.128694
 H        -0.496619         0.424717        -0.553520
 H        -0.349871        -0.928499         0.418063
 H         1.214699        -1.984882        -0.646629
 H         2.041218        -0.914265        -1.881013
 H         4.782221        -2.518329        -0.212551
 H         4.697372         0.040746         0.971962
 H         1.888036         2.234115         0.271167
 H         2.024678         1.674795        -1.535535
 H         2.233091        -0.634308         2.105689
