19
Iteration:  3622
 C         0.032592        -0.132943         0.308569
 C         1.517756         0.053782         0.093118
 C         2.073136        -1.005988        -1.025506
 C         3.180884        -1.351124         0.045580
 O         3.884949        -2.519546         0.203546
 C         3.847515        -0.042500         0.299531
 O         3.463747         1.135157        -0.545446
 C         2.086465         1.440853        -0.359272
 C         2.620241        -0.475201         1.158953
 H        -0.194919         0.301165         1.330770
 H        -0.554036         0.339739        -0.463478
 H        -0.165928        -1.280764         0.304137
 H         1.278926        -1.694540        -1.170683
 H         2.516939        -0.434273        -1.886060
 H         3.179470        -3.104896         0.028946
 H         4.874550         0.000263         0.863736
 H         1.869712         2.205805         0.398345
 H         1.727517         1.669216        -1.480507
 H         2.724501        -0.499642         2.250189
