19
Iteration:   884
 C         0.060839        -0.195145         0.365254
 C         1.528596         0.105512        -0.040795
 C         2.083493        -0.960774        -1.095659
 C         3.224710        -1.346041        -0.061937
 O         3.736563        -2.619769         0.230712
 C         3.772004         0.010001         0.430674
 O         3.594405         1.171057        -0.341478
 C         2.198603         1.459652        -0.336804
 C         2.467959        -0.461289         0.988445
 H        -0.235410         0.555087         1.129113
 H        -0.659482        -0.049489        -0.392311
 H        -0.032550        -1.257503         0.667507
 H         1.360165        -1.860453        -1.081357
 H         2.297931        -0.694542        -2.107592
 H         4.196579        -3.004912        -0.586555
 H         4.709080         0.075043         0.970303
 H         1.907551         2.159119         0.403114
 H         2.060405         1.866659        -1.331635
 H         2.200620        -0.755846         2.074648
