19
Iteration:  3034charge 0 multiplicity 1
 C         0.046401        -0.168082         0.287181
 C         1.498996         0.042917         0.080394
 C         2.075587        -1.033540        -0.945764
 C         3.159785        -1.353346         0.018992
 O         3.943787        -2.491055         0.152618
 C         3.781429         0.025692         0.313246
 O         3.514371         1.068938        -0.572196
 C         2.143579         1.432720        -0.274476
 C         2.499632        -0.402869         1.087836
 H        -0.241090         0.375274         1.201421
 H        -0.565398         0.110914        -0.549664
 H        -0.098500        -1.265933         0.439331
 H         1.225947        -1.739017        -1.188021
 H         2.429361        -0.585225        -1.849069
 H         3.346913        -3.170790         0.410907
 H         4.771325         0.029029         0.690987
 H         2.275062         2.047313         0.640857
 H         1.727309         2.104196        -1.074334
 H         2.473584        -0.479425         2.132669
