19
Iteration:  3471charge 0 multiplicity 1
 C        -0.001835        -0.083650         0.284902
 C         1.558178         0.084799         0.115643
 C         2.107828        -1.025279        -0.957052
 C         3.206230        -1.371542         0.019299
 O         3.911182        -2.556886         0.131228
 C         3.776493         0.044805         0.328488
 O         3.485009         1.088381        -0.522374
 C         2.062874         1.402242        -0.354174
 C         2.625763        -0.450801         1.140109
 H        -0.365941         0.410019         1.363429
 H        -0.460403         0.390755        -0.556808
 H        -0.279323        -1.149224         0.284021
 H         1.208833        -1.729146        -1.265690
 H         2.516454        -0.679533        -1.963629
 H         3.274783        -3.123129         0.550699
 H         4.793058         0.215857         0.735055
 H         1.895425         2.314519         0.325155
 H         1.632109         1.532992        -1.358125
 H         2.562580        -0.700620         2.172804
