19
Iteration:  2647
 C         0.162274        -0.364043         0.444274
 C         1.544940         0.068785         0.032722
 C         2.026282        -1.044738        -1.084726
 C         3.202278        -1.287873         0.023334
 O         3.668891        -2.590731         0.156418
 C         3.831972         0.061173         0.364091
 O         3.583106         1.243940        -0.499318
 C         2.122351         1.401632        -0.429869
 C         2.588269        -0.350222         1.043515
 H        -0.296739         0.242998         1.403180
 H        -0.539952        -0.222290        -0.365651
 H         0.219164        -1.401865         0.718925
 H         1.414299        -2.041200        -1.244014
 H         2.137087        -0.484451        -1.973228
 H         3.384114        -2.851527         1.100577
 H         4.840361         0.094201         0.708859
 H         1.941224         2.169819         0.482405
 H         1.715090         1.897319        -1.318894
 H         2.549757        -0.471934         2.200000
