19
Iteration:  1673charge 0 multiplicity 1
 C         0.117246        -0.135109         0.311487
 C         1.571114         0.051235         0.021842
 C         2.154520        -0.943226        -1.079941
 C         3.243156        -1.337940         0.013854
 O         3.743509        -2.680559         0.269303
 C         3.798598         0.041537         0.418024
 O         3.458836         1.116582        -0.584581
 C         2.045971         1.500202        -0.208133
 C         2.524444        -0.507001         1.031121
 H        -0.223329         0.542128         1.189718
 H        -0.437712         0.120929        -0.543023
 H        -0.181029        -1.209379         0.393476
 H         1.369263        -1.842886        -1.251577
 H         2.400487        -0.451691        -2.006307
 H         4.621879        -2.628166        -0.248608
 H         4.753758         0.213451         0.859186
 H         1.969175         2.118662         0.664663
 H         1.836051         2.019016        -1.302714
 H         2.321851        -0.707814         2.149554
