19
Iteration:  2653charge 0 multiplicity 1
 C         0.179281        -0.355476         0.434621
 C         1.535945         0.076365         0.042447
 C         2.005869        -1.046541        -1.054278
 C         3.240982        -1.276425        -0.000473
 O         3.657116        -2.562996         0.166128
 C         3.827530         0.046904         0.391604
 O         3.550560         1.227105        -0.526314
 C         2.124115         1.429330        -0.411946
 C         2.614928        -0.387923         1.088823
 H        -0.189134         0.097245         1.237909
 H        -0.587034        -0.279748        -0.447294
 H         0.254173        -1.449197         0.654660
 H         1.300065        -1.780093        -1.210511
 H         2.259604        -0.576533        -2.084256
 H         3.210206        -2.834730         0.948008
 H         4.873291         0.018268         0.730033
 H         1.793817         2.124575         0.290773
 H         1.870165         1.894286        -1.405585
 H         2.683600        -0.474119         2.111478
