19
Iteration:  4542charge 0 multiplicity 1
 C         0.081579        -0.104624         0.470108
 C         1.474189         0.030395        -0.042225
 C         1.997109        -1.057559        -0.947691
 C         3.155401        -1.380078        -0.014957
 O         3.953175        -2.518792         0.121448
 C         3.778017        -0.030743         0.352832
 O         3.575383         1.165605        -0.426005
 C         2.103533         1.400644        -0.422512
 C         2.516285        -0.427637         1.082336
 H         0.038133         0.613281         1.308247
 H        -0.717590         0.042282        -0.297210
 H        -0.262585        -1.076029         0.833246
 H         1.333767        -1.900526        -1.193532
 H         2.557705        -0.745246        -1.877311
 H         3.873921        -3.156926        -0.547893
 H         4.768914         0.043089         0.802360
 H         1.726046         2.239704         0.302746
 H         1.955310         1.771434        -1.370155
 H         2.136601        -0.151223         2.135519
