19
Iteration:  3052
 C         0.044433        -0.139326         0.404132
 C         1.558881         0.053624        -0.040965
 C         2.037993        -0.975246        -1.130513
 C         3.141659        -1.371061        -0.012810
 O         3.947731        -2.504050         0.294998
 C         3.788698        -0.063537         0.306909
 O         3.496852         1.181859        -0.580912
 C         2.110617         1.474175        -0.226231
 C         2.562836        -0.515684         1.024734
 H        -0.364647         0.536131         1.273224
 H        -0.558063         0.023700        -0.489551
 H        -0.061085        -1.137596         0.865459
 H         1.358750        -1.859699        -1.243274
 H         2.472457        -0.660334        -2.049302
 H         3.462767        -3.243143         0.599741
 H         4.727680        -0.184312         0.905265
 H         1.940434         2.029038         0.703704
 H         1.732266         1.910922        -1.110693
 H         2.376273        -0.614712         2.164310
