19
Iteration:  1045charge 0 multiplicity 1
 C        -0.012599        -0.067242         0.328659
 C         1.511705        -0.034411        -0.034076
 C         2.000785        -1.158910        -1.109818
 C         3.174427        -1.269013        -0.103678
 O         3.761337        -2.484853         0.193007
 C         3.856793        -0.077192         0.421365
 O         3.663030         1.269636        -0.219880
 C         2.157123         1.395184        -0.366084
 C         2.524391        -0.489781         1.018705
 H        -0.194917         0.706679         1.028224
 H        -0.782671         0.226378        -0.542583
 H        -0.187861        -1.058955         0.701666
 H         1.472117        -2.038981        -1.037405
 H         2.418824        -0.919641        -2.145130
 H         4.276682        -2.848091        -0.600120
 H         4.837894        -0.170604         0.914175
 H         1.727258         2.031565         0.435456
 H         2.009532         1.780835        -1.355810
 H         2.218065        -0.649305         2.136487
