19
Iteration:  1106
 C        -0.037520        -0.036665         0.223399
 C         1.500332        -0.051800         0.057657
 C         2.205921        -0.967618        -0.965747
 C         3.233085        -1.314885         0.022967
 O         3.725384        -2.578238         0.122116
 C         3.855259         0.066490         0.438572
 O         3.530735         1.131604        -0.432356
 C         2.132905         1.296880        -0.327815
 C         2.557618        -0.519154         1.115581
 H        -0.346966         0.701624         1.099724
 H        -0.532200         0.460827        -0.572215
 H        -0.533813        -0.923879         0.585857
 H         1.609070        -1.793741        -1.510798
 H         2.514486        -0.314990        -1.849152
 H         4.165403        -2.813783        -0.781333
 H         4.831664         0.121928         0.921544
 H         1.839340         2.072762         0.459191
 H         1.781094         1.712102        -1.363343
 H         2.337519        -0.570299         2.163346
