19
Iteration:   473
 C         0.073185         0.014600         0.299577
 C         1.564357         0.055258        -0.025350
 C         1.919768        -1.188535        -0.920528
 C         3.146728        -1.316173        -0.071950
 O         3.845263        -2.491123         0.017499
 C         3.768732        -0.047184         0.445057
 O         3.587915         1.237887        -0.180310
 C         2.186906         1.391450        -0.524308
 C         2.555140        -0.584092         1.061728
 H        -0.346735         0.795443         0.875023
 H        -0.528003         0.018168        -0.564705
 H        -0.265224        -1.056792         0.747861
 H         1.283051        -2.129799        -0.745498
 H         1.990783        -0.920410        -1.942615
 H         4.315024        -2.400411         0.818987
 H         4.854342        -0.101543         0.708435
 H         1.901175         2.273929         0.012925
 H         2.005467         1.485029        -1.614281
 H         2.419054        -0.618271         2.095920
