19
Iteration:  4279
 C         0.030944         0.098539         0.320308
 C         1.490652        -0.019423         0.084140
 C         1.903890        -1.145049        -0.850031
 C         3.173637        -1.323689        -0.115448
 O         3.974949        -2.495042         0.120360
 C         3.754987         0.011561         0.367269
 O         3.546675         1.225101        -0.322757
 C         2.099241         1.331899        -0.509130
 C         2.646918        -0.629253         1.087257
 H        -0.214351         0.697532         1.159467
 H        -0.452804         0.490309        -0.634672
 H        -0.459086        -0.878783         0.649750
 H         1.078208        -1.949636        -0.641691
 H         1.990687        -0.885987        -1.863759
 H         4.746919        -2.574442        -0.447937
 H         4.772847        -0.010792         0.896229
 H         1.665839         2.209803        -0.040693
 H         1.779799         1.353479        -1.635660
 H         2.681898        -0.832178         2.147819
