19
Iteration:   881charge 0 multiplicity 1
 C         0.047478        -0.189068         0.362409
 C         1.518254         0.077004        -0.046637
 C         2.050671        -0.983144        -1.079903
 C         3.190260        -1.342064        -0.056652
 O         3.767090        -2.609458         0.236140
 C         3.786378        -0.013035         0.413529
 O         3.610568         1.185900        -0.344662
 C         2.208492         1.470688        -0.325373
 C         2.458395        -0.446814         0.991629
 H        -0.253673         0.394695         1.163435
 H        -0.656968         0.015919        -0.510826
 H         0.079867        -1.201200         0.679508
 H         1.398764        -1.804977        -1.171509
 H         2.341617        -0.596340        -2.118273
 H         4.142411        -2.979835        -0.546681
 H         4.689982        -0.062723         1.016626
 H         1.919960         2.166173         0.441409
 H         2.054264         1.905096        -1.397253
 H         2.256446        -0.745962         2.036112
