19
Iteration:  4835charge 0 multiplicity 1
 C         0.040321         0.134866         0.372999
 C         1.446760        -0.020569        -0.003612
 C         1.970399        -1.177037        -0.951483
 C         3.194365        -1.393624        -0.040206
 O         4.036351        -2.496037         0.075651
 C         3.790612        -0.034093         0.385361
 O         3.524650         1.278569        -0.221987
 C         2.098487         1.315426        -0.495811
 C         2.588814        -0.526537         1.033079
 H        -0.078185         0.986853         1.002503
 H        -0.604161         0.233256        -0.507569
 H        -0.442505        -0.767628         0.842886
 H         1.331698        -2.077018        -1.053327
 H         2.086455        -0.947365        -2.016276
 H         3.557129        -3.291423        -0.098594
 H         4.661656        -0.009547         0.978749
 H         1.727994         2.181514         0.078464
 H         1.854441         1.533051        -1.564210
 H         2.518994        -0.743655         2.037738
