19
Iteration:  1446charge 0 multiplicity 1
 C         0.070896        -0.284138         0.298392
 C         1.524517         0.107179        -0.020284
 C         2.023111        -1.020509        -1.053101
 C         3.193563        -1.346964        -0.060271
 O         3.714261        -2.585979         0.249594
 C         3.803410         0.006837         0.390074
 O         3.579234         1.178168        -0.433886
 C         2.167390         1.487618        -0.242105
 C         2.563722        -0.424867         0.976794
 H        -0.231798         0.376249         1.188673
 H        -0.589944        -0.026161        -0.522530
 H        -0.022658        -1.314869         0.457051
 H         1.228930        -1.872245        -1.064141
 H         2.328512        -0.713594        -2.042182
 H         4.566142        -2.696858        -0.123502
 H         4.742644        -0.144501         1.036174
 H         1.955418         2.254976         0.578694
 H         1.900476         2.043203        -1.154464
 H         2.398010        -0.488471         2.078099
