19
Iteration:  4387
 C         0.088475        -0.083910         0.369018
 C         1.585019        -0.012195         0.073804
 C         2.098886        -1.133924        -0.977934
 C         3.207806        -1.364550         0.026485
 O         3.723911        -2.674380         0.070727
 C         3.804322         0.043579         0.279616
 O         3.482468         1.265653        -0.427790
 C         2.014244         1.440779        -0.430343
 C         2.696942        -0.384300         1.117016
 H        -0.105864         0.680059         1.065832
 H        -0.580198         0.350200        -0.490873
 H        -0.143748        -1.203666         0.659366
 H         1.302145        -2.034032        -0.937858
 H         2.240146        -0.931892        -2.026445
 H         4.355318        -2.674060         0.874498
 H         4.853897         0.049537         0.650366
 H         1.820161         2.061463         0.491381
 H         1.542544         1.786861        -1.278223
 H         2.597636        -0.417700         2.162465
