19
Iteration:  1399charge 0 multiplicity 1
 C        -0.058247         0.279995         0.360114
 C         1.470898        -0.097554         0.036306
 C         2.079094        -1.163096        -1.019295
 C         3.222993        -1.329187        -0.020118
 O         4.015138        -2.533891        -0.064430
 C         3.740150        -0.014103         0.510243
 O         3.571247         1.122955        -0.255535
 C         2.104832         1.204539        -0.493066
 C         2.428241        -0.485639         1.148697
 H        -0.018209         1.161272         1.076535
 H        -0.580968         0.512854        -0.544286
 H        -0.692545        -0.606249         0.716592
 H         1.535855        -2.178700        -1.063532
 H         2.353907        -0.757142        -1.988436
 H         4.930525        -2.201974        -0.355577
 H         4.548290         0.065687         1.169501
 H         1.683175         2.161795         0.077233
 H         1.921277         1.430268        -1.484749
 H         2.218948        -0.568977         2.201177
