19
Iteration:  2419
 C         0.044451        -0.045231         0.212472
 C         1.505379        -0.004992         0.061474
 C         2.066135        -1.060414        -0.935097
 C         3.233810        -1.340398         0.067641
 O         3.851129        -2.574160         0.130330
 C         3.812186         0.018355         0.391644
 O         3.465723         1.176421        -0.447800
 C         2.099172         1.360139        -0.363475
 C         2.613083        -0.463274         1.156773
 H        -0.307962         0.598084         1.129222
 H        -0.426958         0.334767        -0.595212
 H        -0.338548        -1.044603         0.324676
 H         1.418150        -1.981311        -1.137605
 H         2.316145        -0.578846        -1.816210
 H         4.101352        -2.796268        -0.783919
 H         4.747639         0.236370         0.879953
 H         1.825995         2.304197         0.126467
 H         1.707367         1.548862        -1.364691
 H         2.532850        -0.636842         2.185306
