19
Iteration:   526
 C         0.016539        -0.002301         0.282519
 C         1.551669         0.015451         0.001913
 C         2.191288        -1.014346        -1.046771
 C         3.231702        -1.250028         0.045176
 O         3.720103        -2.591638         0.054626
 C         3.779114         0.052177         0.467609
 O         3.522545         1.063706        -0.454720
 C         2.127118         1.322316        -0.313090
 C         2.528617        -0.498107         1.085145
 H        -0.188240         0.637863         1.218798
 H        -0.587853         0.416103        -0.521750
 H        -0.405071        -0.982208         0.687322
 H         1.617825        -1.997265        -1.101032
 H         2.431818        -0.535791        -1.978675
 H         4.527139        -2.668039         0.515969
 H         4.634366         0.245402         1.159077
 H         1.997792         2.115296         0.405634
 H         1.674081         1.715999        -1.374331
 H         2.434396        -0.814556         2.069898
