19
Iteration:  4656charge 0 multiplicity 1
 C        -0.051434         0.138298         0.368558
 C         1.443223        -0.020142         0.033420
 C         1.995681        -1.172312        -0.895948
 C         3.255226        -1.303784        -0.026936
 O         3.975479        -2.526390        -0.074909
 C         3.759958         0.047877         0.469640
 O         3.582210         1.126587        -0.362287
 C         2.109467         1.275991        -0.477668
 C         2.494365        -0.500533         1.144724
 H         0.001062         1.010433         0.996266
 H        -0.600187         0.224144        -0.565975
 H        -0.456103        -0.738763         0.907947
 H         1.486768        -2.177783        -0.869460
 H         2.295707        -0.984809        -1.961668
 H         4.938491        -2.346786         0.024742
 H         4.600813         0.002948         1.116058
 H         1.724081         2.107548         0.200508
 H         1.809938         1.670169        -1.487926
 H         2.334420        -0.764352         2.197698
