19
Iteration:   233
 C         0.021618         0.254474         0.224426
 C         1.490190        -0.051636         0.057946
 C         2.046526        -1.160741        -0.916126
 C         3.247617        -1.287050        -0.078504
 O         3.923449        -2.460862         0.061742
 C         3.776634        -0.004098         0.530521
 O         3.521939         1.075190        -0.344132
 C         2.094879         1.277805        -0.423759
 C         2.525006        -0.600489         1.099111
 H        -0.038135         0.851350         1.066530
 H        -0.431672         0.763618        -0.579830
 H        -0.613781        -0.745297         0.430810
 H         1.290939        -2.039641        -0.936953
 H         2.246726        -0.832857        -1.910465
 H         4.564300        -2.503303        -0.624568
 H         4.672767         0.036764         1.075548
 H         1.716915         2.044377         0.279385
 H         1.817491         1.618669        -1.356782
 H         2.356693        -0.972774         2.113076
