19
Iteration:  2870
 C         0.004027        -0.137602         0.286259
 C         1.446091         0.084624         0.021519
 C         2.062561        -1.044829        -0.877400
 C         3.248368        -1.291723         0.024723
 O         3.910892        -2.497793         0.176166
 C         3.822746         0.021901         0.327612
 O         3.505612         1.085847        -0.603652
 C         2.090158         1.392205        -0.216023
 C         2.607964        -0.455947         1.062272
 H        -0.497946         0.493344         1.076813
 H        -0.407792         0.364526        -0.632474
 H        -0.320173        -1.216981         0.371051
 H         1.374540        -1.933077        -0.809780
 H         2.305497        -0.921586        -1.965419
 H         3.371641        -3.221853        -0.318882
 H         4.865855        -0.057610         0.760024
 H         2.170976         2.034424         0.651859
 H         1.683219         1.827127        -1.104363
 H         2.548232        -0.402937         2.218307
