19
Iteration:   665
 C         0.081141        -0.054740         0.274914
 C         1.509012         0.101909        -0.093040
 C         1.953560        -1.161956        -0.970506
 C         3.147274        -1.260774        -0.056268
 O         3.855529        -2.480227         0.114969
 C         3.700737        -0.037609         0.472765
 O         3.638654         1.093084        -0.353043
 C         2.262797         1.429002        -0.365656
 C         2.448643        -0.512318         1.095455
 H        -0.272542         0.435058         1.228440
 H        -0.706105         0.217176        -0.483841
 H        -0.186610        -0.998904         0.587913
 H         1.327199        -1.993381        -0.753890
 H         2.093718        -0.993155        -2.072318
 H         4.787346        -2.324090        -0.230565
 H         4.697624        -0.103678         0.992123
 H         1.988776         2.192537         0.447737
 H         2.024388         1.800235        -1.296662
 H         2.237240        -0.884241         2.054383
