19
Iteration:  3197
 C        -0.000588         0.058375         0.418571
 C         1.495539        -0.029247         0.010251
 C         2.074898        -1.106532        -0.990815
 C         3.204158        -1.373952        -0.002839
 O         4.032568        -2.511472         0.091674
 C         3.792152        -0.008900         0.348164
 O         3.511642         1.155291        -0.448675
 C         2.025645         1.348119        -0.415551
 C         2.569048        -0.473266         1.077235
 H        -0.056429         0.934590         1.226666
 H        -0.674682         0.253230        -0.326025
 H        -0.356090        -0.891434         0.935273
 H         1.266527        -1.912041        -1.174978
 H         2.491293        -0.721060        -1.875025
 H         3.503311        -3.252567         0.486331
 H         4.663630         0.117392         1.070059
 H         1.689858         2.166207         0.243774
 H         1.745203         1.602288        -1.387986
 H         2.236915        -0.380970         2.122124
