19
Iteration:  3229charge 0 multiplicity 1
 C         0.129363        -0.302236         0.421400
 C         1.547350         0.035523         0.035362
 C         2.022546        -1.039635        -1.030990
 C         3.220514        -1.308279        -0.075260
 O         3.724788        -2.488219         0.180955
 C         3.840345         0.022033         0.339080
 O         3.554406         1.166039        -0.479519
 C         2.096654         1.467170        -0.406193
 C         2.620259        -0.421399         1.071423
 H        -0.275792         0.506575         1.283622
 H        -0.493856        -0.289786        -0.401137
 H         0.221782        -1.404618         0.775019
 H         1.203106        -1.918949        -1.137644
 H         2.258447        -0.828991        -2.101160
 H         3.316241        -2.646588         1.003661
 H         4.761198         0.016357         1.018526
 H         1.891074         2.395110         0.303664
 H         1.814988         1.723271        -1.362200
 H         2.251427        -0.636183         2.085021
