19
Iteration:  4212charge 0 multiplicity 1
 C         0.028396        -0.107342         0.473930
 C         1.501660         0.052384         0.062134
 C         2.134201        -0.930758        -1.035472
 C         3.201799        -1.378487        -0.010337
 O         3.798660        -2.546447         0.192674
 C         3.799288         0.114653         0.441321
 O         3.514087         1.063946        -0.528464
 C         2.096314         1.355253        -0.431116
 C         2.571231        -0.513419         1.029696
 H        -0.072086         0.536122         1.259995
 H        -0.650541         0.049709        -0.392674
 H        -0.249127        -1.101159         1.002327
 H         1.392558        -1.830894        -1.305731
 H         2.535110        -0.522877        -1.890921
 H         4.335162        -2.825674        -0.612892
 H         4.765083         0.143539         0.892396
 H         1.972165         2.207262         0.279166
 H         1.605718         1.721196        -1.421040
 H         2.499567        -0.573789         2.158347
