19
Iteration:  4745
 C         0.109843        -0.063156         0.322560
 C         1.562263         0.015520        -0.029528
 C         2.044867        -1.053434        -1.009648
 C         3.158302        -1.316004        -0.032423
 O         3.932416        -2.566977         0.152507
 C         3.763335         0.015716         0.425821
 O         3.492991         1.200296        -0.473614
 C         2.119103         1.356089        -0.300716
 C         2.547063        -0.486624         1.093199
 H         0.009601         0.401077         1.270904
 H        -0.650866         0.276601        -0.435389
 H        -0.371504        -1.141936         0.472371
 H         1.313298        -1.940462        -1.229830
 H         2.425569        -0.610181        -1.930174
 H         3.337353        -3.319812         0.016267
 H         4.793295         0.050433         0.822396
 H         1.859288         2.138286         0.476655
 H         1.678278         1.844466        -1.150969
 H         2.285998        -0.253821         2.149241
