19
Iteration:  4613charge 0 multiplicity 1
 C        -0.012010        -0.025837         0.317936
 C         1.517846         0.001970         0.037079
 C         2.042665        -1.152570        -0.939886
 C         3.118350        -1.408731         0.066650
 O         3.965538        -2.511853         0.010139
 C         3.787442         0.003910         0.328638
 O         3.553173         1.183860        -0.421381
 C         2.107478         1.429317        -0.320419
 C         2.614355        -0.453933         1.090709
 H        -0.353526         0.667049         1.067384
 H        -0.588248         0.279684        -0.605267
 H        -0.378029        -1.076460         0.576525
 H         1.158698        -1.846433        -1.106290
 H         2.314765        -0.644892        -1.876566
 H         3.946664        -2.894842         0.865905
 H         4.802664        -0.202171         0.532487
 H         1.783887         2.311205         0.351853
 H         1.589563         1.690875        -1.392112
 H         2.455850        -0.571863         2.150367
