19
Iteration:   871
 C         0.038849        -0.148425         0.321752
 C         1.480057         0.034998        -0.058228
 C         1.990801        -1.046037        -1.062205
 C         3.061827        -1.334358        -0.043993
 O         3.844946        -2.528084         0.252548
 C         3.796554        -0.094104         0.380461
 O         3.679456         1.213718        -0.341569
 C         2.202699         1.480354        -0.323449
 C         2.515080        -0.465238         1.026678
 H        -0.300225         0.225843         1.190794
 H        -0.648403        -0.003214        -0.553592
 H        -0.037190        -1.210840         0.468994
 H         1.301173        -1.774563        -1.424237
 H         2.473363        -0.489300        -1.901848
 H         4.069483        -2.859949        -0.587635
 H         4.652730        -0.333421         0.985571
 H         2.037687         2.120249         0.455639
 H         1.814683         2.005613        -1.286155
 H         2.354152        -0.578591         2.149785
