19
Iteration:  2697
 C        -0.023032         0.002453         0.418145
 C         1.538711        -0.004683        -0.009335
 C         2.057197        -1.083217        -0.967470
 C         3.189353        -1.377651        -0.007178
 O         3.998357        -2.518888         0.137360
 C         3.730706         0.022487         0.377275
 O         3.513203         1.141048        -0.520798
 C         2.085739         1.346357        -0.371687
 C         2.610847        -0.463002         1.111103
 H        -0.091461         0.745042         1.105465
 H        -0.828502         0.280367        -0.392914
 H        -0.372374        -0.938329         0.898260
 H         1.477713        -1.913631        -1.127115
 H         2.457080        -0.682849        -1.984286
 H         3.457891        -3.236699        -0.138039
 H         4.634543         0.142687         0.887028
 H         1.963082         2.122575         0.379589
 H         1.581447         1.755324        -1.294348
 H         2.406754        -0.350454         2.145049
