19
Iteration:   103charge 0 multiplicity 1
 C         0.007023         0.117649         0.245037
 C         1.505818        -0.047190        -0.041483
 C         2.092440        -1.130074        -0.950537
 C         3.206411        -1.324710         0.047843
 O         3.876391        -2.551402         0.059941
 C         3.736273         0.026426         0.468711
 O         3.558495         1.128348        -0.392563
 C         2.128413         1.287607        -0.342721
 C         2.531937        -0.478195         1.114496
 H        -0.054489         0.752061         1.113750
 H        -0.545935         0.622267        -0.537713
 H        -0.601876        -0.854122         0.508309
 H         1.296455        -2.003282        -0.921069
 H         2.408262        -0.888823        -1.919358
 H         4.583085        -2.458231        -0.649700
 H         4.701746         0.191112         0.979617
 H         1.880656         2.008834         0.475640
 H         1.834800         1.655135        -1.400344
 H         2.176607        -0.487712         2.136215
