19
Iteration:   965charge 0 multiplicity 1
 C         0.023630         0.075945         0.216027
 C         1.527962         0.013878         0.012134
 C         1.887037        -1.162456        -0.892936
 C         3.147916        -1.336793        -0.046716
 O         3.999848        -2.412199        -0.057130
 C         3.688955        -0.048234         0.524700
 O         3.681417         1.086704        -0.401738
 C         2.232275         1.381723        -0.324024
 C         2.401593        -0.558343         1.093010
 H        -0.258575         0.615943         1.207505
 H        -0.502108         0.523454        -0.696433
 H        -0.465156        -0.849608         0.575047
 H         1.222767        -1.965038        -0.577329
 H         1.825192        -1.171539        -2.026060
 H         4.703619        -2.285150         0.666454
 H         4.717223        -0.182614         0.839423
 H         1.922973         2.098058         0.484581
 H         2.062355         1.838988        -1.233677
 H         2.102412        -0.611520         2.063020
