19
Iteration:   595
 C         0.125923         0.151365         0.241967
 C         1.503972        -0.049504        -0.015280
 C         1.995736        -1.137449        -0.973279
 C         3.265185        -1.280610        -0.092052
 O         3.843632        -2.575755         0.112917
 C         3.733441         0.044734         0.523180
 O         3.542053         1.218542        -0.263441
 C         2.146192         1.294671        -0.415341
 C         2.522602        -0.567457         1.052474
 H        -0.080455         0.843695         0.977983
 H        -0.492084         0.374203        -0.589773
 H        -0.324513        -0.815990         0.714874
 H         1.390988        -2.020365        -0.739742
 H         2.054752        -0.957564        -2.031398
 H         4.203930        -2.838233        -0.743288
 H         4.643943         0.139769         1.064425
 H         1.763320         2.092875         0.228407
 H         1.884727         1.604083        -1.473012
 H         2.405948        -0.980818         2.104052
