19
Iteration:  3935charge 0 multiplicity 1
 C         0.033518         0.220022         0.366401
 C         1.512451        -0.064091         0.025700
 C         1.935226        -1.228886        -0.841806
 C         3.273519        -1.316494        -0.070019
 O         4.025268        -2.496232        -0.043530
 C         3.757896         0.049108         0.441363
 O         3.473968         1.227025        -0.350443
 C         2.091219         1.256887        -0.463128
 C         2.582854        -0.579340         1.074067
 H        -0.037752         0.924644         1.176958
 H        -0.405819         0.470919        -0.630131
 H        -0.506921        -0.651769         0.695106
 H         1.133693        -2.086119        -0.813889
 H         2.081947        -0.966941        -1.878930
 H         4.069115        -2.912972         0.879487
 H         4.728858         0.078128         0.906681
 H         1.627518         2.080199        -0.026256
 H         1.868481         1.339745        -1.596701
 H         2.356490        -0.818574         2.151364
