19
Iteration:  1533
 C        -0.003049         0.076561         0.326369
 C         1.481607        -0.022570        -0.043027
 C         1.922201        -1.216901        -0.915279
 C         3.128155        -1.280001        -0.023359
 O         4.067703        -2.394567         0.024623
 C         3.715321        -0.032800         0.448991
 O         3.637000         1.139899        -0.249288
 C         2.220334         1.313412        -0.510532
 C         2.442784        -0.512709         1.109896
 H        -0.130684         0.870967         1.152889
 H        -0.681301         0.358718        -0.485942
 H        -0.410258        -0.872559         0.596412
 H         1.253583        -2.129886        -0.761924
 H         2.046158        -1.047859        -1.985436
 H         3.990826        -2.780824        -0.863691
 H         4.637060        -0.190524         1.089176
 H         1.790306         2.025985         0.327757
 H         2.179527         1.646200        -1.495351
 H         2.307472        -0.508209         2.264829
