19
Iteration:  3297charge 0 multiplicity 1
 C        -0.006861         0.052063         0.396338
 C         1.516815        -0.052692         0.023265
 C         2.019151        -1.088130        -0.971057
 C         3.283541        -1.320216        -0.071687
 O         3.987907        -2.457850         0.132707
 C         3.783046         0.020384         0.429844
 O         3.503869         1.087088        -0.494753
 C         2.102070         1.338271        -0.408788
 C         2.543756        -0.493406         1.091993
 H        -0.122795         0.861869         1.216940
 H        -0.645132         0.411619        -0.439426
 H        -0.409887        -0.928370         0.661310
 H         1.279222        -1.917907        -1.107387
 H         2.105328        -0.631242        -1.917807
 H         3.427611        -3.189398         0.552082
 H         4.779013         0.036341         0.792454
 H         1.841875         2.232478         0.303626
 H         1.647447         1.578817        -1.374225
 H         2.477927        -0.803751         2.177796
