19
Iteration:    79charge 0 multiplicity 1
 C        -0.017624         0.120495         0.313388
 C         1.465610         0.044979         0.008381
 C         1.846288        -1.228803        -0.947875
 C         3.217788        -1.298349        -0.083677
 O         4.001739        -2.468205         0.060596
 C         3.705850        -0.054007         0.483536
 O         3.653648         1.147707        -0.227801
 C         2.211827         1.373343        -0.559054
 C         2.486694        -0.555562         1.098172
 H        -0.334589         0.744526         1.064387
 H        -0.578022         0.380016        -0.539886
 H        -0.375914        -0.992615         0.537205
 H         1.227564        -2.143096        -0.604054
 H         1.912690        -1.178725        -1.983532
 H         4.945575        -2.363924        -0.310818
 H         4.677711         0.095795         1.098271
 H         2.030429         2.217810         0.088045
 H         1.970565         1.565045        -1.612703
 H         2.181275        -0.826647         2.145230
