19
Iteration:  1030charge 0 multiplicity 1
 C         0.034549         0.047370         0.314315
 C         1.516009         0.006073        -0.033192
 C         2.084827        -1.060944        -0.997277
 C         3.213027        -1.343727        -0.060983
 O         3.792096        -2.603120         0.093825
 C         3.779633         0.058729         0.471985
 O         3.547407         1.222456        -0.216001
 C         2.137299         1.315629        -0.443476
 C         2.557562        -0.560670         1.065676
 H        -0.161417         0.851707         1.152192
 H        -0.485817         0.258965        -0.623802
 H        -0.444225        -0.894097         0.658883
 H         1.356365        -1.928059        -1.055867
 H         2.180068        -0.685486        -2.053472
 H         4.580458        -2.603665        -0.422805
 H         4.768484        -0.037595         0.896202
 H         1.764991         2.220267         0.057988
 H         1.928976         1.463631        -1.494542
 H         2.339985        -0.911760         2.002819
