19
Iteration:  3525
 C         0.053525         0.170636         0.464089
 C         1.468346        -0.001320        -0.028832
 C         1.938445        -1.215409        -0.898927
 C         3.224411        -1.340290        -0.027734
 O         4.097393        -2.367771         0.029733
 C         3.756389        -0.076676         0.457374
 O         3.549323         1.184841        -0.293599
 C         2.142441         1.278722        -0.587334
 C         2.454515        -0.546129         1.074673
 H        -0.098010         1.328160         0.838181
 H        -0.574230         0.125694        -0.368789
 H        -0.334507        -0.675971         1.043692
 H         1.329533        -2.133998        -0.701072
 H         2.023484        -1.071513        -2.025097
 H         3.639723        -3.203846        -0.081449
 H         4.793774        -0.076181         0.941249
 H         1.539119         2.159502        -0.271278
 H         1.830093         1.231673        -1.720162
 H         2.196492        -0.789371         2.087760
