19
Iteration:   315
 C         0.043261        -0.062274         0.396873
 C         1.495801        -0.008795         0.017354
 C         2.252830        -0.971975        -1.068158
 C         3.272619        -1.300569        -0.043973
 O         3.669864        -2.689266         0.115439
 C         3.780077         0.092986         0.517158
 O         3.515665         1.148823        -0.380612
 C         2.110094         1.436128        -0.437064
 C         2.524250        -0.527178         1.064379
 H        -0.121234         0.798321         1.221018
 H        -0.654090         0.055733        -0.518887
 H        -0.207790        -0.886438         0.967447
 H         1.664958        -1.851441        -1.109948
 H         2.574223        -0.653567        -2.104942
 H         4.509332        -2.719007        -0.358187
 H         4.667162         0.208260         1.155442
 H         1.754433         2.272601         0.134131
 H         1.829524         1.517739        -1.618672
 H         2.396219        -0.805975         2.076667
