19
Iteration:  2995
 C         0.014684         0.065679         0.310902
 C         1.511935        -0.028029         0.108935
 C         2.002073        -1.160571        -0.779451
 C         3.253074        -1.298253         0.035643
 O         4.009762        -2.506377        -0.054546
 C         3.756684         0.034750         0.438157
 O         3.512890         1.215804        -0.415003
 C         2.133783         1.263800        -0.505765
 C         2.538599        -0.463574         1.125485
 H        -0.209692         0.745506         1.135308
 H        -0.680515         0.441448        -0.607649
 H        -0.467031        -0.893845         0.448021
 H         1.437485        -2.054517        -0.815670
 H         2.251991        -0.835823        -1.900649
 H         3.308535        -3.238172        -0.098505
 H         4.685187        -0.103731         1.011455
 H         1.616731         2.183410        -0.129541
 H         1.807947         1.276569        -1.564293
 H         2.505550        -0.637156         2.185804
