19
Iteration:  4829charge 0 multiplicity 1
 C         0.026502         0.114153         0.373151
 C         1.512571         0.002548        -0.045584
 C         1.986048        -1.195808        -0.948883
 C         3.156024        -1.416939        -0.038798
 O         4.033581        -2.495041         0.061337
 C         3.770641         0.016534         0.362568
 O         3.540407         1.250920        -0.208926
 C         2.039698         1.362201        -0.483715
 C         2.606135        -0.553609         1.051807
 H        -0.046124         1.101406         0.942005
 H        -0.590759         0.264624        -0.532372
 H        -0.357388        -0.769637         0.865788
 H         1.380732        -2.130190        -0.913698
 H         2.031309        -1.069892        -2.085121
 H         3.541321        -3.326381         0.033064
 H         4.726791        -0.057372         0.949117
 H         1.655952         2.152147         0.174472
 H         2.001707         1.648764        -1.568445
 H         2.446810        -0.657572         2.210329
