19
Iteration:  1580
 C        -0.055943         0.349746         0.251007
 C         1.439623        -0.101827         0.008367
 C         1.997777        -1.255888        -0.864483
 C         3.241084        -1.351524         0.017125
 O         4.068680        -2.497968        -0.055848
 C         3.767576         0.015484         0.434284
 O         3.508198         1.262623        -0.154574
 C         2.130663         1.140393        -0.513639
 C         2.530576        -0.539079         1.149787
 H        -0.057923         1.105667         0.925772
 H        -0.715092         0.702578        -0.610571
 H        -0.607367        -0.457149         0.601006
 H         1.463544        -2.136901        -0.904507
 H         2.145262        -0.859019        -1.956350
 H         4.130110        -2.764263        -0.955663
 H         4.694453        -0.046236         0.873297
 H         1.674321         2.078222        -0.036895
 H         2.031603         1.045192        -1.608909
 H         2.536852        -0.796211         2.220280
