19
Iteration:  4779charge 0 multiplicity 1
 C        -0.119577        -0.058966         0.321080
 C         1.453025         0.051333         0.059626
 C         2.072210        -1.003026        -0.990349
 C         3.250787        -1.329919        -0.038327
 O         3.952091        -2.501442         0.002630
 C         3.824489         0.008087         0.460555
 O         3.524956         1.099958        -0.466060
 C         2.157295         1.364471        -0.370772
 C         2.530734        -0.506895         1.177190
 H        -0.354708         0.670556         1.022380
 H        -0.591357         0.266592        -0.634341
 H        -0.172206        -1.136629         0.767381
 H         1.422572        -1.981792        -1.147567
 H         2.401179        -0.559883        -1.935173
 H         3.604433        -2.922469         0.866131
 H         4.872242        -0.144630         0.809180
 H         2.102796         2.227672         0.342335
 H         1.791626         1.544626        -1.374755
 H         2.402391        -0.645885         2.220773
