19
Iteration:  4963charge 0 multiplicity 1
 C         0.026251        -0.012594         0.420998
 C         1.490298         0.047859        -0.041432
 C         2.111374        -1.115169        -1.038482
 C         3.242315        -1.341711         0.030400
 O         3.947816        -2.587284         0.066419
 C         3.804281         0.003768         0.426500
 O         3.532277         1.213043        -0.388487
 C         2.070185         1.396063        -0.421886
 C         2.476431        -0.466729         1.037327
 H        -0.309950         0.833582         0.981362
 H        -0.783222        -0.036617        -0.396252
 H        -0.155194        -0.948920         1.095310
 H         1.334578        -1.963985        -0.855295
 H         2.506791        -0.721621        -2.025394
 H         3.412656        -3.329648         0.409550
 H         4.820092        -0.039752         0.728759
 H         1.731698         1.919829         0.522527
 H         1.832466         1.868315        -1.370141
 H         2.419044        -0.533438         2.051717
