19
Iteration:  4996
 C         0.057628        -0.085306         0.407371
 C         1.497127         0.055977         0.020918
 C         1.993696        -1.058698        -0.951342
 C         3.152264        -1.287502        -0.013178
 O         3.993303        -2.431804         0.008235
 C         3.760274         0.022272         0.485943
 O         3.574998         1.104957        -0.366211
 C         2.162541         1.274792        -0.506848
 C         2.473630        -0.461237         1.123182
 H        -0.133502         0.579840         1.171806
 H        -0.417311         0.123793        -0.591309
 H        -0.081577        -1.181137         0.628030
 H         1.193241        -1.896640        -1.120312
 H         1.968015        -0.831514        -2.054224
 H         3.409179        -3.127349         0.218099
 H         4.765896        -0.075536         0.871454
 H         1.784926         2.129137         0.137583
 H         2.006059         1.653275        -1.505425
 H         2.391169        -0.468432         2.137761
