19
Iteration:  2362charge 0 multiplicity 1
 C         0.057542         0.145121         0.408455
 C         1.507435        -0.006079        -0.094040
 C         1.898102        -1.228046        -0.959854
 C         3.166641        -1.390953        -0.111933
 O         4.116341        -2.357199        -0.024518
 C         3.657758        -0.027541         0.547690
 O         3.582833         1.256869        -0.176302
 C         2.153240         1.225169        -0.574223
 C         2.446028        -0.564670         1.067055
 H        -0.085901         1.169227         1.030683
 H        -0.617334         0.210390        -0.357525
 H        -0.177219        -0.646951         1.065643
 H         1.170564        -2.137808        -0.905585
 H         2.059979        -0.975999        -1.979659
 H         4.233181        -2.786988         0.889914
 H         4.731539        -0.261913         0.864246
 H         1.767010         2.209303        -0.247786
 H         2.266990         1.039014        -1.637971
 H         1.967180        -0.846661         2.047917
