19
Iteration:  2738
 C        -0.011221         0.264421         0.282872
 C         1.412169        -0.100618         0.099281
 C         1.894778        -1.268106        -0.839012
 C         3.189799        -1.379811        -0.022733
 O         4.216362        -2.306604        -0.105700
 C         3.721162         0.028231         0.468807
 O         3.562498         1.097314        -0.362433
 C         2.133108         1.244424        -0.498282
 C         2.493128        -0.548618         1.138387
 H        -0.021389         1.118961         1.111799
 H        -0.475916         0.630004        -0.623928
 H        -0.595586        -0.582864         0.816824
 H         1.109901        -2.061903        -0.507234
 H         1.668201        -1.073999        -1.918985
 H         4.056464        -3.227581         0.283517
 H         4.682735        -0.092374         0.904709
 H         1.757913         2.099069         0.220029
 H         1.989772         1.531518        -1.547630
 H         2.520345        -0.675385         2.148974
