19
Iteration:  1747charge 0 multiplicity 1
 C         0.005461         0.260288         0.389723
 C         1.443956        -0.046833        -0.040447
 C         1.910845        -1.272257        -0.871754
 C         3.201214        -1.320435        -0.036615
 O         4.154523        -2.460738        -0.031806
 C         3.743000        -0.047497         0.487450
 O         3.556481         1.241107        -0.089119
 C         2.167087         1.207403        -0.678666
 C         2.398019        -0.542913         1.079979
 H         0.086893         1.184550         0.940338
 H        -0.735596         0.493517        -0.401616
 H        -0.515477        -0.598013         1.032454
 H         1.389973        -2.240335        -0.649593
 H         1.949461        -1.112544        -1.968483
 H         4.481954        -2.451978        -0.909185
 H         4.665481        -0.034438         1.072360
 H         1.870621         2.304264        -0.556639
 H         2.101797         1.128611        -1.769141
 H         2.037651        -0.818259         2.156866
