19
Iteration:  1344
 C        -0.084796         0.096611         0.239841
 C         1.513219         0.002143         0.064506
 C         1.874138        -1.239849        -0.859675
 C         3.156942        -1.309870        -0.146398
 O         3.965849        -2.463579        -0.059862
 C         3.769054        -0.062273         0.475007
 O         3.624061         1.249411        -0.147405
 C         2.229380         1.254599        -0.506732
 C         2.509643        -0.464362         1.146083
 H        -0.261178         0.819201         1.077332
 H        -0.457132         0.524115        -0.683157
 H        -0.419099        -1.004794         0.512807
 H         1.053290        -2.131386        -0.829046
 H         2.080128        -1.036452        -1.917156
 H         4.899600        -2.073609        -0.178252
 H         4.798343        -0.309047         0.676315
 H         1.762207         2.201798        -0.099579
 H         2.181795         1.043743        -1.518564
 H         2.449195        -0.732527         2.288616
