19
Iteration:   983charge 0 multiplicity 1
 C        -0.052696         0.209695         0.253343
 C         1.448460        -0.026251        -0.045451
 C         1.974133        -1.214674        -0.930963
 C         3.151685        -1.313983         0.033932
 O         3.982973        -2.420835        -0.139152
 C         3.765151        -0.050095         0.477107
 O         3.619571         1.052332        -0.312991
 C         2.211320         1.261637        -0.384948
 C         2.460776        -0.450038         1.171283
 H        -0.212774         0.769830         1.222410
 H        -0.579105         0.580884        -0.539483
 H        -0.591372        -0.796802         0.444479
 H         1.362828        -2.246631        -0.953072
 H         2.299476        -1.052244        -1.918321
 H         4.802216        -2.244154         0.432122
 H         4.585630        -0.112606         1.230227
 H         2.048137         1.981668         0.408992
 H         1.924944         1.818054        -1.356878
 H         2.350917        -0.606951         2.319358
