19
Iteration:  4462
 C         0.073495         0.067106         0.411926
 C         1.526217         0.042052         0.031785
 C         1.968591        -1.130943        -0.898006
 C         3.199077        -1.412092         0.018898
 O         3.992216        -2.563750         0.011567
 C         3.731215        -0.046249         0.342513
 O         3.528054         1.188804        -0.440378
 C         2.098459         1.414168        -0.440988
 C         2.493602        -0.527364         1.124030
 H        -0.163997         0.876720         1.079142
 H        -0.357615         0.415950        -0.597281
 H        -0.369863        -0.927577         0.912705
 H         1.221197        -2.057753        -0.716606
 H         2.061358        -1.028758        -1.963943
 H         4.845626        -2.204071         0.185900
 H         4.712113         0.078521         0.853392
 H         1.533420         2.126690         0.291576
 H         1.789347         1.597043        -1.479510
 H         2.454422        -0.568890         2.165170
