19
Iteration:  3033
 C         0.035006        -0.165551         0.271561
 C         1.504810         0.037761         0.082782
 C         2.073833        -1.035586        -0.943593
 C         3.165971        -1.344628         0.019995
 O         3.941041        -2.488787         0.142488
 C         3.785247         0.022865         0.329194
 O         3.504630         1.068393        -0.575041
 C         2.147520         1.433541        -0.275954
 C         2.503141        -0.392657         1.085681
 H        -0.250219         0.360401         1.240492
 H        -0.528979         0.119379        -0.508084
 H        -0.096159        -1.265994         0.461457
 H         1.213419        -1.758927        -1.175023
 H         2.428866        -0.614382        -1.809107
 H         3.340049        -3.193374         0.405011
 H         4.790514        -0.024226         0.719035
 H         2.270733         2.048286         0.632802
 H         1.746058         2.060455        -1.097219
 H         2.507862        -0.478622         2.164768
