19
Iteration:  4049
 C         0.100225         0.024330         0.353360
 C         1.534922         0.052166         0.056437
 C         1.985391        -1.057049        -0.925323
 C         3.198232        -1.383679        -0.050036
 O         3.847350        -2.560095         0.201210
 C         3.801363         0.018429         0.297875
 O         3.466583         1.143680        -0.468382
 C         2.049028         1.399567        -0.368704
 C         2.653063        -0.537042         1.081414
 H        -0.423804         0.552908         1.132455
 H        -0.268330         0.051104        -0.672382
 H        -0.300750        -1.056602         0.676794
 H         1.296608        -2.008873        -0.848369
 H         2.274420        -0.777725        -1.957344
 H         4.699435        -2.516606        -0.260740
 H         4.781661         0.087002         0.631391
 H         1.773657         2.112775         0.396098
 H         1.726460         1.765280        -1.350668
 H         2.682523        -0.554447         2.146999
