19
Iteration:  4655charge 0 multiplicity 1
 C        -0.049709         0.131268         0.362422
 C         1.441822        -0.020524         0.040604
 C         1.986879        -1.174913        -0.892390
 C         3.258568        -1.306822        -0.032569
 O         3.973923        -2.521380        -0.075820
 C         3.755807         0.051865         0.479153
 O         3.586850         1.123523        -0.368697
 C         2.101837         1.277769        -0.470147
 C         2.495297        -0.496758         1.130465
 H         0.015522         1.019564         1.022521
 H        -0.584563         0.211837        -0.554884
 H        -0.441306        -0.701463         0.887091
 H         1.507846        -2.139107        -0.862562
 H         2.280406        -0.999032        -1.972199
 H         4.973018        -2.375573         0.069715
 H         4.619355        -0.003812         1.127627
 H         1.751665         2.105729         0.197068
 H         1.845268         1.637860        -1.427173
 H         2.309331        -0.742325         2.166380
