19
Iteration:   809
 C        -0.058659         0.201990         0.287024
 C         1.430998        -0.025939        -0.012084
 C         2.165114        -1.167075        -0.980701
 C         3.297707        -1.316391         0.028964
 O         3.862902        -2.657816        -0.033275
 C         3.778393         0.052223         0.510546
 O         3.510073         1.178949        -0.322421
 C         2.128395         1.272661        -0.404664
 C         2.497160        -0.491159         1.093333
 H        -0.195815         1.159234         1.056528
 H        -0.534279         0.685720        -0.547973
 H        -0.630088        -0.675227         0.760620
 H         1.749786        -2.262881        -1.061899
 H         2.457228        -0.852952        -1.966953
 H         4.768182        -2.454664         0.069552
 H         4.721964         0.199920         0.989905
 H         1.821546         2.192221         0.337178
 H         1.840362         1.459788        -1.397775
 H         2.296214        -0.919269         2.137980
