19
Iteration:    25charge 0 multiplicity 1
 C         0.045462         0.180217         0.373807
 C         1.469489        -0.048254        -0.038391
 C         2.069478        -1.175344        -0.966349
 C         3.336089        -1.304387        -0.025397
 O         3.832198        -2.640888         0.016549
 C         3.740096         0.078792         0.605752
 O         3.542279         1.286318        -0.260614
 C         2.122864         1.289238        -0.546740
 C         2.472148        -0.576891         1.021572
 H         0.047174         1.088320         0.879542
 H        -0.644870         0.322948        -0.429898
 H        -0.440129        -0.709325         0.992801
 H         1.547330        -2.249568        -0.775084
 H         2.136820        -1.066997        -2.006325
 H         4.781712        -2.676212        -0.377020
 H         4.708587         0.151882         1.206969
 H         1.710248         2.232050        -0.101470
 H         1.883890         1.362661        -1.693163
 H         2.343663        -0.908577         2.078581
