19
Iteration:  2515
 C         0.000326         0.110048         0.402804
 C         1.495441        -0.037275         0.028178
 C         2.012969        -1.171487        -0.961549
 C         3.241982        -1.274746        -0.049531
 O         3.975886        -2.501503         0.049734
 C         3.829660        -0.016390         0.407850
 O         3.545916         1.282257        -0.249353
 C         2.087870         1.260041        -0.556336
 C         2.509736        -0.547973         1.105445
 H        -0.156891         0.998261         1.149120
 H        -0.680541         0.268280        -0.437256
 H        -0.358309        -0.767966         0.885340
 H         1.575184        -2.249973        -0.774762
 H         2.066938        -0.891528        -2.035555
 H         3.458617        -3.248068        -0.401657
 H         4.682949         0.016913         1.042506
 H         1.542597         2.218533        -0.288170
 H         2.088894         1.281461        -1.624468
 H         2.441652        -0.783099         2.119023
