19
Iteration:  1715charge 0 multiplicity 1
 C         0.048337         0.060032         0.263828
 C         1.501160        -0.065375         0.038823
 C         1.912114        -1.237105        -0.922389
 C         3.152669        -1.296326        -0.035651
 O         3.956574        -2.473221         0.075391
 C         3.807702         0.037974         0.414760
 O         3.594630         1.261504        -0.239823
 C         2.128570         1.340964        -0.500261
 C         2.539705        -0.518681         1.138678
 H        -0.099193         0.796608         1.036907
 H        -0.349632         0.365822        -0.654246
 H        -0.465443        -0.928687         0.527333
 H         1.301696        -2.209118        -0.775087
 H         2.008586        -0.996848        -1.994762
 H         4.151535        -2.867944        -0.811783
 H         4.789500        -0.070605         0.891847
 H         1.759605         2.212466         0.019569
 H         1.916444         1.289285        -1.606396
 H         2.226610        -0.858917         2.192866
