19
Iteration:  1407charge 0 multiplicity 1
 C        -0.030315         0.164967         0.354956
 C         1.426785        -0.081027        -0.014901
 C         2.082842        -1.111300        -0.986453
 C         3.190195        -1.353145         0.014504
 O         3.963823        -2.500582        -0.017918
 C         3.756508        -0.049085         0.520087
 O         3.573649         1.137475        -0.289390
 C         2.113941         1.252522        -0.473784
 C         2.478308        -0.507650         1.079460
 H        -0.057205         0.956512         1.044429
 H        -0.552406         0.648771        -0.551636
 H        -0.661626        -0.561915         0.959726
 H         1.510551        -1.932585        -1.226618
 H         2.432152        -0.639007        -1.974169
 H         4.922501        -2.243209        -0.236944
 H         4.659571        -0.037898         1.144427
 H         1.781128         2.174833         0.147260
 H         1.870075         1.419228        -1.597916
 H         2.410826        -0.575719         2.240712
