19
Iteration:  1700
 C        -0.049788        -0.006862         0.267230
 C         1.513264        -0.034700         0.017392
 C         2.067846        -1.111541        -0.937105
 C         3.239249        -1.301027        -0.007572
 O         3.815790        -2.538362         0.169510
 C         3.839071         0.004714         0.355602
 O         3.582604         1.266737        -0.347351
 C         2.091558         1.286008        -0.378468
 C         2.583986        -0.501572         1.068669
 H        -0.357287         0.656125         1.070881
 H        -0.645203         0.368614        -0.684760
 H        -0.436376        -1.022084         0.447617
 H         1.471330        -1.942072        -0.868589
 H         2.225128        -0.832770        -2.008325
 H         4.117174        -2.749801        -0.771389
 H         4.891562        -0.028956         0.817768
 H         1.673890         2.098441         0.384306
 H         1.886831         1.626671        -1.320472
 H         2.515526        -0.652476         2.115541
