19
Iteration:  4053
 C         0.101978         0.016029         0.364270
 C         1.532718         0.062496         0.039026
 C         1.963358        -1.117845        -0.924301
 C         3.187247        -1.326914        -0.024301
 O         3.857201        -2.569325         0.178370
 C         3.790012        -0.009601         0.295362
 O         3.489875         1.144177        -0.453900
 C         2.071646         1.400376        -0.373016
 C         2.642572        -0.528620         1.068595
 H        -0.473913         0.619509         1.182767
 H        -0.326495         0.041873        -0.645337
 H        -0.196767        -0.973262         0.563645
 H         1.317427        -1.875287        -0.826522
 H         2.163480        -0.905116        -2.057762
 H         4.752354        -2.350575        -0.240830
 H         4.821614         0.131182         0.760376
 H         1.629643         2.119108         0.381678
 H         1.686375         1.752643        -1.297635
 H         2.731628        -0.518765         2.199247
