19
Iteration:  4303
 C        -0.003178         0.168281         0.386814
 C         1.439921        -0.049434         0.069648
 C         2.019969        -1.193238        -0.908070
 C         3.214034        -1.278859        -0.006980
 O         4.000348        -2.513489        -0.057662
 C         3.800190        -0.000020         0.494423
 O         3.531604         1.095680        -0.398320
 C         2.111048         1.259702        -0.491932
 C         2.476958        -0.425616         1.142653
 H        -0.086820         0.899126         1.224965
 H        -0.554187         0.347981        -0.477773
 H        -0.412511        -0.641259         0.855820
 H         1.506177        -2.118171        -0.795318
 H         2.180753        -0.903725        -1.970470
 H         4.833482        -2.357475        -0.465476
 H         4.766731         0.071444         1.013966
 H         1.731493         2.158577         0.057744
 H         1.650732         1.369882        -1.572720
 H         2.302622        -0.721569         2.142414
