19
Iteration:  3753charge 0 multiplicity 1
 C         0.080947         0.159239         0.345841
 C         1.495317         0.020450         0.029140
 C         2.036827        -1.238950        -0.821066
 C         3.195009        -1.333407         0.059207
 O         4.139500        -2.410438        -0.138612
 C         3.711937        -0.031449         0.472061
 O         3.522865         1.064979        -0.372872
 C         2.120539         1.287458        -0.505820
 C         2.403595        -0.422456         1.185908
 H        -0.067677         0.882322         1.199635
 H        -0.478705         0.652730        -0.505400
 H        -0.518995        -0.844340         0.525202
 H         1.243952        -1.980556        -0.689453
 H         2.122450        -1.311982        -1.982643
 H         3.569813        -3.163978        -0.398373
 H         4.582700         0.149098         0.992920
 H         1.798930         2.158229         0.076271
 H         1.738954         1.434669        -1.479808
 H         2.032959        -0.543988         2.217816
