19
Iteration:  3359
 C        -0.030263         0.225670         0.295940
 C         1.487369        -0.015899         0.101522
 C         1.958608        -1.291831        -0.749334
 C         3.260712        -1.302471         0.038109
 O         4.088031        -2.390456        -0.206767
 C         3.720640         0.003792         0.531254
 O         3.563788         1.203257        -0.285711
 C         2.168693         1.135822        -0.588082
 C         2.485822        -0.480727         1.131396
 H        -0.262842         1.120446         1.016168
 H        -0.618661         0.402176        -0.577164
 H        -0.523797        -0.738352         0.708173
 H         1.297734        -2.252907        -0.595003
 H         1.884261        -1.024704        -1.880205
 H         3.501654        -3.225044        -0.155357
 H         4.705836         0.145883         0.979018
 H         1.659676         2.073540        -0.304016
 H         2.089314         1.051355        -1.706953
 H         2.370324        -0.647937         2.223045
