19
Iteration:  4002charge 0 multiplicity 1
 C         0.102664        -0.103856         0.443596
 C         1.518283         0.024157        -0.035211
 C         2.123310        -1.113738        -0.967782
 C         3.241459        -1.293318        -0.033231
 O         3.847546        -2.536247         0.170261
 C         3.755421         0.035062         0.386452
 O         3.486850         1.106519        -0.517226
 C         2.138441         1.437501        -0.359505
 C         2.536847        -0.412865         1.049923
 H         0.036244         0.563324         1.228351
 H        -0.738898        -0.034332        -0.302984
 H        -0.152971        -0.994335         1.063142
 H         1.280648        -1.977900        -1.010139
 H         2.396160        -0.745361        -1.918754
 H         3.423724        -3.078147        -0.475902
 H         4.787155         0.102458         0.872894
 H         1.868020         2.055785         0.459211
 H         1.645633         1.876633        -1.331860
 H         2.248830        -0.571922         2.109518
