19
Iteration:  3263
 C         0.091950        -0.241285         0.406634
 C         1.553905        -0.014213        -0.031823
 C         2.129225        -1.066318        -1.043529
 C         3.197847        -1.388618         0.043426
 O         3.734365        -2.639859         0.180513
 C         3.805491         0.068068         0.317646
 O         3.517451         1.270288        -0.538348
 C         2.065768         1.486843        -0.356165
 C         2.641913        -0.367219         1.071631
 H        -0.292089         0.361541         1.406796
 H        -0.619759        -0.105959        -0.349131
 H        -0.062455        -1.288086         0.852451
 H         1.254458        -1.796842        -1.350666
 H         2.595912        -0.575245        -1.878669
 H         3.324238        -3.078428         0.946890
 H         4.861495         0.139847         0.701314
 H         2.082477         2.276980         0.523974
 H         1.699488         1.862557        -1.264202
 H         2.431368        -0.414822         2.187929
