19
Iteration:  4851charge 0 multiplicity 1
 C        -0.040779         0.110227         0.410927
 C         1.541242        -0.042413         0.080722
 C         1.993764        -1.089087        -0.973873
 C         3.262363        -1.290988        -0.125364
 O         4.021479        -2.477752         0.083476
 C         3.755924         0.014139         0.436975
 O         3.565126         1.195955        -0.306946
 C         2.116933         1.228361        -0.511967
 C         2.471620        -0.542638         1.129756
 H        -0.135763         0.947084         1.165701
 H        -0.557323         0.477437        -0.488549
 H        -0.423177        -0.864099         0.666035
 H         1.358697        -2.003985        -1.031590
 H         2.088601        -0.733182        -2.113728
 H         3.479436        -3.176117        -0.396218
 H         4.785718        -0.126222         0.887741
 H         1.657007         2.145749        -0.118946
 H         2.067462         1.145805        -1.651315
 H         2.228332        -0.755856         2.255734
