19
Iteration:  2175
 C        -0.080459         0.113089         0.222184
 C         1.449194        -0.002579         0.106489
 C         1.992485        -1.176160        -0.887014
 C         3.190076        -1.333220        -0.001252
 O         4.025593        -2.426550        -0.168099
 C         3.752437        -0.045581         0.461833
 O         3.567037         1.122126        -0.260081
 C         2.185998         1.247612        -0.531543
 C         2.496787        -0.445606         1.237288
 H        -0.416304         0.769974         1.088455
 H        -0.619759         0.445017        -0.602495
 H        -0.407535        -0.881347         0.639022
 H         1.352450        -2.074649        -0.645554
 H         2.054933        -1.048103        -1.953510
 H         4.858422        -2.237774         0.346924
 H         4.657044        -0.087083         0.974766
 H         1.771856         2.091080         0.000630
 H         1.995414         1.307928        -1.633952
 H         2.571793        -0.511239         2.293814
