19
Iteration:  3835charge 0 multiplicity 1
 C         0.090875        -0.177498         0.415526
 C         1.505235         0.034673        -0.022075
 C         2.137812        -1.087266        -1.006923
 C         3.184989        -1.354003         0.006409
 O         3.745762        -2.691157         0.126750
 C         3.850282         0.059480         0.371156
 O         3.509237         1.305735        -0.529773
 C         2.080404         1.406197        -0.288304
 C         2.601528        -0.385423         0.995183
 H        -0.244901         0.706734         1.175197
 H        -0.578340        -0.056988        -0.480732
 H        -0.040219        -1.111698         0.874744
 H         1.580668        -2.035715        -1.065909
 H         2.641001        -0.648372        -1.848192
 H         3.374461        -2.971681         0.932361
 H         4.894226         0.053665         0.767490
 H         1.928128         1.976731         0.569416
 H         1.542943         1.821720        -1.252064
 H         2.543402        -0.326513         2.069114
