19
Iteration:  3707
 C         0.025589         0.149701         0.317823
 C         1.495707        -0.011042         0.101795
 C         1.942563        -1.156083        -0.839544
 C         3.165582        -1.346615        -0.040360
 O         4.081995        -2.396068        -0.008187
 C         3.750805        -0.059733         0.420577
 O         3.547053         1.196521        -0.260366
 C         2.075879         1.279535        -0.554248
 C         2.611309        -0.549257         1.084192
 H        -0.318854         0.990840         0.784193
 H        -0.461731         0.240741        -0.759057
 H        -0.515598        -0.813755         0.681549
 H         1.201479        -2.013730        -0.745351
 H         1.865931        -0.989720        -1.950446
 H         3.617015        -3.279138         0.199334
 H         4.836496        -0.271171         0.723388
 H         1.564675         2.209058        -0.154830
 H         2.004808         1.353573        -1.548070
 H         2.481841        -0.709338         2.146685
