19
Iteration:  4667charge 0 multiplicity 1
 C        -0.023665         0.162315         0.382527
 C         1.487787        -0.049685        -0.015667
 C         2.091944        -1.170611        -0.927486
 C         3.192248        -1.333256         0.052622
 O         3.970814        -2.527836        -0.052456
 C         3.756712        -0.049240         0.436039
 O         3.504280         1.195357        -0.324367
 C         2.122164         1.305407        -0.522594
 C         2.515370        -0.534745         1.185777
 H        -0.345904         1.005107         0.969630
 H        -0.706043         0.357054        -0.449466
 H        -0.419469        -0.718717         0.963332
 H         1.360153        -2.047156        -0.901058
 H         2.211555        -0.788749        -1.966521
 H         4.766048        -2.209378        -0.395171
 H         4.697488         0.107294         0.879707
 H         1.807122         2.150632         0.156674
 H         1.946125         1.393387        -1.642632
 H         2.507536        -0.704208         2.278207
