19
Iteration:  3747charge 0 multiplicity 1
 C         0.038634         0.173946         0.330886
 C         1.507605        -0.003726         0.027731
 C         1.994564        -1.243037        -0.810743
 C         3.233013        -1.320700         0.047877
 O         4.126636        -2.419027        -0.166266
 C         3.709642         0.029261         0.505274
 O         3.554809         1.072570        -0.361113
 C         2.079821         1.239837        -0.530123
 C         2.394825        -0.451898         1.180008
 H        -0.065194         0.863724         1.269896
 H        -0.238087         0.635794        -0.616598
 H        -0.566117        -0.598968         0.615359
 H         1.267101        -2.036300        -0.515383
 H         2.331782        -1.329724        -1.847750
 H         3.597272        -3.142188        -0.434895
 H         4.700312         0.018068         1.121077
 H         1.817048         2.086237         0.162710
 H         1.685886         1.592621        -1.631824
 H         2.217133        -0.436255         2.257048
