19
Iteration:  3913
 C         0.003930         0.266271         0.389358
 C         1.539675        -0.046459        -0.009775
 C         2.009917        -1.304774        -0.907945
 C         3.249509        -1.374215        -0.001672
 O         4.052600        -2.505035        -0.071075
 C         3.750703        -0.017780         0.399587
 O         3.515577         1.213454        -0.340288
 C         2.019976         1.300056        -0.438569
 C         2.515455        -0.483759         1.076227
 H        -0.052814         0.934080         1.275746
 H        -0.594932         0.568457        -0.539929
 H        -0.490666        -0.616058         0.750553
 H         1.365862        -2.270081        -0.732875
 H         2.185162        -1.269693        -1.969397
 H         4.178700        -2.833923         0.803626
 H         4.671744         0.024885         0.906664
 H         1.676369         1.997185         0.213267
 H         1.725997         1.724187        -1.452514
 H         2.317900        -0.472035         2.186838
