19
Iteration:   585
 C         0.011997         0.088660         0.294882
 C         1.555435         0.005688        -0.065789
 C         1.987544        -1.171682        -0.961832
 C         3.187895        -1.377777        -0.062979
 O         3.879518        -2.547536         0.105250
 C         3.752252         0.011018         0.457135
 O         3.609020         1.209699        -0.258920
 C         2.145821         1.363521        -0.420830
 C         2.502299        -0.499058         1.091150
 H        -0.166696         0.805985         1.006159
 H        -0.513414         0.354593        -0.635823
 H        -0.312631        -0.960144         0.486817
 H         1.372539        -2.044486        -0.970317
 H         2.119919        -0.879848        -2.016831
 H         4.517127        -2.709319        -0.648778
 H         4.712167        -0.097351         0.935958
 H         1.852878         2.000953         0.415842
 H         1.805457         1.771920        -1.335350
 H         2.215712        -0.686633         2.204822
