19
Iteration:  1323
 C         0.028181         0.035049         0.349188
 C         1.510365         0.017429         0.004323
 C         2.030511        -1.047650        -0.946346
 C         3.235050        -1.305437         0.009974
 O         3.841656        -2.587064        -0.019428
 C         3.787977         0.019200         0.493554
 O         3.546694         1.208128        -0.237711
 C         2.153389         1.339515        -0.535751
 C         2.490308        -0.581181         1.046278
 H        -0.309203         0.760840         1.147377
 H        -0.504594         0.232011        -0.544168
 H        -0.179361        -1.081795         0.556435
 H         1.400585        -2.074106        -0.755058
 H         2.072551        -0.795622        -1.978465
 H         4.758485        -2.578474        -0.155271
 H         4.653222         0.151272         1.102371
 H         1.868997         2.187398         0.084635
 H         1.952322         1.441221        -1.632993
 H         2.377698        -0.708623         2.193756
