19
Iteration:  3794charge 0 multiplicity 1
 C        -0.002983        -0.019328         0.408742
 C         1.519195        -0.004960         0.056550
 C         2.002100        -1.045333        -1.033793
 C         3.195731        -1.319974        -0.063567
 O         3.949559        -2.450261         0.180942
 C         3.820176        -0.020680         0.309111
 O         3.545809         1.159351        -0.434302
 C         2.138173         1.330397        -0.365211
 C         2.541543        -0.487171         1.042540
 H        -0.220173         0.541591         1.192663
 H        -0.643910         0.155106        -0.516033
 H        -0.242833        -1.035800         0.817093
 H         1.333775        -1.975971        -1.112620
 H         2.133078        -0.716241        -2.015888
 H         3.445894        -3.165512         0.677403
 H         4.777792        -0.116333         0.811404
 H         1.855614         2.285303         0.242889
 H         1.853365         1.568663        -1.387227
 H         2.359672        -0.879942         2.045502
