19
Iteration:  2501
 C         0.080144         0.040137         0.451087
 C         1.501053        -0.038010        -0.041203
 C         2.025342        -1.091406        -0.997005
 C         3.235384        -1.374104        -0.077057
 O         3.945291        -2.514818         0.108014
 C         3.724722         0.091363         0.442402
 O         3.511529         1.233194        -0.256232
 C         2.110565         1.288840        -0.539978
 C         2.577373        -0.562035         1.021287
 H        -0.013377         0.859449         1.041698
 H        -0.637562         0.203537        -0.474172
 H        -0.201157        -0.837746         1.034757
 H         1.249458        -1.805324        -1.102032
 H         2.273232        -0.751117        -2.040063
 H         3.298329        -3.177570         0.294393
 H         4.789872         0.077110         0.868453
 H         1.773835         2.078549         0.132689
 H         1.842834         1.435143        -1.629155
 H         2.404335        -0.637153         2.089776
