19
Iteration:  2778charge 0 multiplicity 1
 C         0.066928         0.077094         0.373368
 C         1.508650        -0.034203         0.021533
 C         1.879043        -1.209302        -0.805225
 C         3.248118        -1.263765        -0.017041
 O         4.042588        -2.483622        -0.109180
 C         3.763568         0.021258         0.439238
 O         3.498116         1.240241        -0.202054
 C         2.150367         1.245383        -0.649558
 C         2.520792        -0.473274         1.139562
 H        -0.162974         0.878588         1.140643
 H        -0.404743         0.388506        -0.536421
 H        -0.420035        -0.822120         0.672134
 H         1.322830        -2.134500        -0.488137
 H         1.950561        -1.172659        -1.853283
 H         3.365198        -3.145098        -0.126245
 H         4.715899         0.092786         1.028283
 H         1.701985         2.159390        -0.392761
 H         2.134682         1.081309        -1.749992
 H         2.640431        -0.588508         2.221962
