19
Iteration:  2189charge 0 multiplicity 1
 C        -0.033882        -0.032515         0.265699
 C         1.502320         0.044826         0.039647
 C         1.968217        -1.091756        -0.774613
 C         3.246599        -1.288842         0.005759
 O         3.910519        -2.507175        -0.117398
 C         3.797999        -0.040104         0.480892
 O         3.566355         1.180536        -0.254787
 C         2.115120         1.313222        -0.550752
 C         2.552275        -0.505620         1.152868
 H        -0.395592         0.717480         1.068362
 H        -0.437152         0.300778        -0.668547
 H        -0.439153        -0.985881         0.359665
 H         1.263017        -2.056770        -0.785611
 H         2.157157        -0.815162        -1.805439
 H         4.803290        -2.411364         0.152782
 H         4.789018        -0.008510         0.907327
 H         1.816243         2.287006        -0.364292
 H         1.976140         1.251206        -1.593642
 H         2.190818        -0.648726         2.211449
