19
Iteration:  3395
 C         0.059361         0.063591         0.349636
 C         1.532966         0.026917         0.041367
 C         1.935451        -1.188675        -0.885860
 C         3.167970        -1.357154        -0.065116
 O         4.013827        -2.460371         0.020183
 C         3.772765         0.033487         0.433073
 O         3.506155         1.232665        -0.249062
 C         2.153944         1.256681        -0.548440
 C         2.551894        -0.479625         1.055400
 H        -0.264537         0.912627         1.084232
 H        -0.493562         0.123669        -0.552006
 H        -0.118755        -0.837513         0.911380
 H         1.263433        -2.183472        -0.814590
 H         2.118607        -0.847118        -1.962792
 H         3.434126        -3.287450         0.120356
 H         4.696001        -0.162655         0.877990
 H         1.643043         2.192578        -0.135083
 H         2.056700         1.273242        -1.586057
 H         2.398187        -0.600074         2.117058
