19
Iteration:  2579
 C        -0.064086         0.225730         0.304180
 C         1.416308        -0.063459         0.059085
 C         1.944707        -1.205732        -0.865869
 C         3.244074        -1.305227         0.007618
 O         4.036081        -2.465737        -0.023043
 C         3.762420        -0.036143         0.411747
 O         3.543617         1.100841        -0.392060
 C         2.115363         1.290722        -0.465872
 C         2.574188        -0.537636         1.195970
 H        -0.210108         0.912220         1.119628
 H        -0.639852         0.550153        -0.655313
 H        -0.485318        -0.719322         0.557925
 H         1.565684        -2.174093        -0.754566
 H         2.102948        -1.043337        -1.944472
 H         4.878123        -2.057961        -0.342189
 H         4.684943        -0.046261         0.953838
 H         1.795787         2.143726         0.195394
 H         1.808593         1.648268        -1.526606
 H         2.445868        -0.607188         2.233669
