19
Iteration:  4598charge 0 multiplicity 1
 C         0.011757        -0.083251         0.352441
 C         1.532697         0.010679         0.110964
 C         2.017929        -1.001131        -1.035416
 C         3.179405        -1.362501        -0.046708
 O         3.925397        -2.590329         0.121891
 C         3.824299        -0.018713         0.303222
 O         3.499263         1.230938        -0.442961
 C         2.075229         1.334684        -0.373465
 C         2.615382        -0.445981         1.115537
 H        -0.362924         0.596645         1.180021
 H        -0.477803         0.344557        -0.499363
 H        -0.286475        -1.032432         0.583975
 H         1.409396        -1.819678        -1.160358
 H         2.498009        -0.704082        -2.008000
 H         3.451066        -3.207474         0.708480
 H         4.818050         0.153902         0.814517
 H         1.880422         2.077288         0.413990
 H         1.821829         1.683852        -1.261701
 H         2.513524        -0.354636         2.198040
