19
Iteration:   370charge 0 multiplicity 1
 C         0.030106        -0.038430         0.247344
 C         1.533484         0.066240         0.022439
 C         1.977283        -1.046173        -0.979398
 C         3.188814        -1.326141        -0.172026
 O         3.843968        -2.462069         0.291300
 C         3.816428        -0.064725         0.411506
 O         3.595602         1.142059        -0.362789
 C         2.134818         1.433668        -0.290473
 C         2.543698        -0.565360         1.023147
 H        -0.698436         0.305755         1.156495
 H        -0.605150         0.121149        -0.731757
 H        -0.063535        -1.066984         0.327391
 H         1.329893        -1.872021        -0.992530
 H         2.242784        -0.847484        -2.067308
 H         4.303648        -2.839140        -0.533513
 H         4.760890        -0.121062         0.853860
 H         1.906082         2.194703         0.389809
 H         1.896989         1.987569        -1.407775
 H         2.337356        -1.051052         1.967917
