19
Iteration:  4176
 C         0.087316        -0.101567         0.345210
 C         1.542794         0.052082         0.088890
 C         1.995616        -1.162933        -0.917113
 C         3.156011        -1.323396        -0.004867
 O         3.822314        -2.572152         0.107235
 C         3.754504         0.037998         0.345929
 O         3.545954         1.181858        -0.494325
 C         2.126773         1.405567        -0.334806
 C         2.610003        -0.466140         1.030759
 H        -0.265591         0.740365         1.018821
 H        -0.636642         0.168829        -0.522706
 H        -0.128389        -1.113682         0.740964
 H         1.132476        -1.854278        -0.869028
 H         2.137799        -0.908520        -2.007490
 H         4.818184        -2.360447         0.102426
 H         4.765314        -0.000533         0.760597
 H         1.896956         2.151182         0.464138
 H         1.782028         1.738640        -1.258457
 H         2.463635        -0.426341         2.069847
