19
Iteration:  1273charge 0 multiplicity 1
 C         0.005360        -0.152788         0.290916
 C         1.493817         0.046376        -0.039225
 C         2.103634        -0.926334        -1.083316
 C         3.172390        -1.363348        -0.121303
 O         3.787267        -2.529441         0.338077
 C         3.802676        -0.027860         0.338892
 O         3.562871         1.145977        -0.455047
 C         2.142749         1.446997        -0.162260
 C         2.541408        -0.538556         0.997206
 H        -0.216499         0.496628         1.169877
 H        -0.762426         0.074554        -0.529515
 H        -0.028339        -1.149864         0.629875
 H         1.410238        -1.620221        -1.381756
 H         2.541742        -0.424260        -2.014588
 H         4.466759        -2.940245        -0.281727
 H         4.706404        -0.032824         0.920487
 H         2.095250         2.029431         0.819804
 H         1.821751         1.911469        -1.116443
 H         2.349526        -0.828751         1.964535
