19
Iteration:   692
 C        -0.040005         0.038060         0.292068
 C         1.484726         0.032751         0.032651
 C         2.136498        -1.016354        -1.025962
 C         3.221006        -1.299614         0.020121
 O         3.832510        -2.641578         0.106701
 C         3.797199        -0.028897         0.393866
 O         3.585207         1.113182        -0.452218
 C         2.107639         1.362507        -0.310293
 C         2.514251        -0.476686         1.063589
 H        -0.587672         0.513317         1.121351
 H        -0.499699         0.408641        -0.612753
 H        -0.607928        -0.965612         0.525253
 H         1.535192        -1.983543        -1.260233
 H         2.503665        -0.458767        -1.881788
 H         4.700790        -2.510512         0.549225
 H         4.696419         0.035190         0.985433
 H         1.927362         1.963101         0.558451
 H         1.749557         1.887901        -1.295187
 H         2.379249        -0.589924         2.197636
