19
Iteration:  1558
 C         0.018766         0.274296         0.280059
 C         1.531058        -0.019263         0.077350
 C         1.893825        -1.287705        -0.837754
 C         3.202828        -1.349118        -0.092481
 O         4.165901        -2.379438        -0.041863
 C         3.723553        -0.060088         0.534956
 O         3.537797         1.153902        -0.218832
 C         2.133086         1.304799        -0.560092
 C         2.443556        -0.615958         1.134833
 H        -0.073302         1.086309         0.901444
 H        -0.422225         0.669312        -0.704410
 H        -0.662849        -0.464042         0.506594
 H         1.202465        -1.995775        -0.532815
 H         1.848565        -1.203543        -2.000749
 H         4.301358        -2.813602        -0.949721
 H         4.556142        -0.097307         1.127268
 H         1.680841         2.261943        -0.100690
 H         2.054279         1.248561        -1.719962
 H         2.044840        -0.852452         2.169988
