19
Iteration:  2547charge 0 multiplicity 1
 C         0.064364         0.168456         0.233826
 C         1.493586        -0.039035         0.028296
 C         1.802435        -1.232584        -0.755652
 C         3.208197        -1.346230         0.020213
 O         4.123603        -2.419577        -0.103115
 C         3.723897        -0.067541         0.479928
 O         3.570148         1.210297        -0.304252
 C         2.125490         1.269639        -0.561913
 C         2.499814        -0.511214         1.224293
 H        -0.166240         0.792413         1.162040
 H        -0.543080         0.609752        -0.640066
 H        -0.251180        -0.785171         0.529075
 H         1.339764        -2.207962        -0.416111
 H         1.795291        -1.218719        -1.863683
 H         4.128524        -2.477832        -1.058593
 H         4.593349        -0.117084         1.095435
 H         1.744021         2.135087         0.087819
 H         2.021981         1.298947        -1.684705
 H         2.369805        -0.382878         2.239562
