19
Iteration:  1511charge 0 multiplicity 1
 C        -0.012596        -0.018499         0.356890
 C         1.493287         0.032992         0.022646
 C         2.123374        -1.080066        -1.007597
 C         3.191081        -1.323257        -0.021729
 O         3.908194        -2.634950         0.128436
 C         3.775381         0.008170         0.440259
 O         3.568651         1.219803        -0.356513
 C         2.136974         1.402729        -0.420284
 C         2.501904        -0.457418         1.067177
 H        -0.263426         0.761350         1.159337
 H        -0.647269         0.134077        -0.503975
 H        -0.260348        -1.019467         0.612459
 H         1.413604        -1.968678        -1.119555
 H         2.461768        -0.783251        -2.000769
 H         3.682175        -3.080271        -0.716541
 H         4.782150        -0.067109         0.978183
 H         1.718616         2.303390         0.242348
 H         1.854886         1.505102        -1.438446
 H         2.258130        -0.721557         2.151919
