19
Iteration:   451charge 0 multiplicity 1
 C        -0.075124         0.095773         0.370488
 C         1.473043        -0.044699        -0.014989
 C         1.946416        -1.137331        -0.967955
 C         3.190798        -1.271180        -0.071971
 O         3.954402        -2.470349        -0.052787
 C         3.748095        -0.018907         0.469503
 O         3.705468         1.153387        -0.238914
 C         2.208098         1.216882        -0.498494
 C         2.422054        -0.425432         1.107369
 H        -0.329931         0.868786         1.060525
 H        -0.674447         0.233802        -0.474272
 H        -0.446122        -1.012615         0.816384
 H         1.277747        -2.077159        -0.891184
 H         2.179908        -0.879907        -1.976643
 H         4.470216        -2.355774         0.827858
 H         4.700005         0.044189         1.099254
 H         2.026452         2.155952         0.015347
 H         2.066491         1.298787        -1.582607
 H         2.352199        -0.989017         1.997508
