19
Iteration:  3336
 C         0.080149         0.176751         0.287545
 C         1.500284        -0.014459         0.014375
 C         1.892181        -1.313508        -0.757949
 C         3.162216        -1.368466        -0.040016
 O         4.207058        -2.370539        -0.098359
 C         3.646364        -0.091980         0.496811
 O         3.533282         1.145979        -0.314209
 C         2.108121         1.313577        -0.514031
 C         2.486574        -0.426937         1.150487
 H         0.173442         1.008890         1.024217
 H        -0.554914         0.611530        -0.466732
 H        -0.568573        -0.663099         0.730668
 H         1.175642        -2.154163        -0.496694
 H         1.960754        -1.252957        -1.909555
 H         3.841074        -3.214936        -0.247338
 H         4.743691        -0.197825         0.742884
 H         1.722018         2.203905        -0.041424
 H         2.071528         1.497778        -1.626672
 H         2.227268        -0.349045         2.202546
