19
Iteration:  4946
 C         0.052838         0.014312         0.341302
 C         1.514782        -0.047032         0.029301
 C         2.038716        -1.072261        -1.041032
 C         3.223088        -1.346467        -0.097746
 O         3.937698        -2.519482         0.161481
 C         3.782613         0.013947         0.362567
 O         3.482586         1.180179        -0.412253
 C         2.074314         1.339835        -0.294279
 C         2.627955        -0.500881         1.058268
 H        -0.059007         1.043068         0.816111
 H        -0.471765         0.046655        -0.589000
 H        -0.253418        -0.882637         0.918850
 H         1.402184        -1.880987        -1.228335
 H         2.240488        -0.617046        -1.986030
 H         3.186505        -3.156733         0.400675
 H         4.680264         0.130742         1.055554
 H         1.792250         2.125220         0.424224
 H         1.762715         1.615121        -1.335784
 H         2.367864        -0.619054         2.190078
