19
Iteration:   303
 C         0.096254        -0.039062         0.344626
 C         1.559036         0.006058         0.006798
 C         2.068020        -0.954488        -0.984918
 C         3.274793        -1.287776        -0.034386
 O         3.733045        -2.574432         0.099328
 C         3.729315         0.052394         0.501681
 O         3.571081         1.128105        -0.382814
 C         2.094847         1.309055        -0.420288
 C         2.530344        -0.563921         1.064935
 H        -0.163302         0.893223         1.017777
 H        -0.549548         0.174448        -0.608996
 H        -0.221572        -0.975699         0.678842
 H         1.374224        -1.762383        -1.160984
 H         2.280723        -0.478874        -1.966596
 H         4.646386        -2.795327        -0.073483
 H         4.626309         0.171495         1.186302
 H         1.876478         2.161412         0.166876
 H         1.753324         1.577527        -1.561435
 H         2.412442        -0.902175         2.076600
