19
Iteration:  1057charge 0 multiplicity 1
 C         0.068807        -0.125458         0.326682
 C         1.499246         0.055126        -0.129034
 C         2.024201        -1.149957        -1.096137
 C         3.122843        -1.333651        -0.102152
 O         3.803085        -2.480713         0.258501
 C         3.748268         0.003743         0.355573
 O         3.666823         1.220782        -0.235186
 C         2.223703         1.425479        -0.291046
 C         2.502965        -0.483979         0.978002
 H        -0.222543         0.436289         1.145940
 H        -0.650276        -0.066968        -0.585746
 H        -0.084296        -1.147955         0.708741
 H         1.330249        -1.958933        -1.075668
 H         2.032021        -0.839399        -2.150986
 H         3.925956        -2.945208        -0.540962
 H         4.599832        -0.174659         1.033508
 H         1.952986         2.045587         0.592842
 H         1.965672         2.071143        -1.158690
 H         2.491617        -0.754492         2.118044
