19
Iteration:  4561
 C         0.100096        -0.088283         0.512935
 C         1.477086         0.009725        -0.003617
 C         2.151038        -1.116790        -1.094330
 C         3.196629        -1.280515        -0.009953
 O         3.830718        -2.512175         0.158816
 C         3.773482         0.055917         0.423245
 O         3.544562         1.158849        -0.481376
 C         2.151340         1.383676        -0.405659
 C         2.526514        -0.422487         1.037015
 H         0.088880         0.417847         1.445402
 H        -0.710487        -0.005815        -0.307984
 H        -0.152267        -1.274289         0.782350
 H         1.347530        -2.023404        -1.023374
 H         2.265576        -0.904124        -2.133524
 H         3.314777        -3.004120        -0.443429
 H         4.643423         0.032466         1.012631
 H         1.916329         1.953379         0.439691
 H         1.595324         1.860435        -1.261391
 H         2.316003        -0.691198         2.088927
