19
Iteration:  4654charge 0 multiplicity 1
 C        -0.045877         0.124586         0.356393
 C         1.441409        -0.021988         0.047489
 C         1.979341        -1.177293        -0.889558
 C         3.261671        -1.309632        -0.037662
 O         3.973167        -2.515892        -0.076477
 C         3.750704         0.054037         0.489215
 O         3.590787         1.121108        -0.375611
 C         2.094255         1.280044        -0.460455
 C         2.496339        -0.492740         1.114679
 H         0.019552         1.028505         1.047178
 H        -0.576002         0.205771        -0.551045
 H        -0.429323        -0.672873         0.873154
 H         1.521919        -2.103016        -0.852356
 H         2.257285        -1.010845        -1.977845
 H         4.989553        -2.405378         0.114043
 H         4.644753        -0.007199         1.139072
 H         1.785098         2.102138         0.194642
 H         1.880595         1.603445        -1.381291
 H         2.283480        -0.717584         2.137677
