19
Iteration:  1698
 C        -0.060804        -0.019254         0.265556
 C         1.521217        -0.018695         0.014249
 C         2.090937        -1.102153        -0.938553
 C         3.234738        -1.299889        -0.021319
 O         3.806654        -2.551468         0.177566
 C         3.842229         0.013492         0.362065
 O         3.568147         1.252904        -0.353721
 C         2.095404         1.293393        -0.365285
 C         2.591142        -0.498303         1.063923
 H        -0.352654         0.680743         1.129840
 H        -0.653922         0.330907        -0.674678
 H        -0.414411        -1.000942         0.411726
 H         1.422802        -1.958708        -0.891436
 H         2.264059        -0.801839        -1.974508
 H         4.153759        -2.794399        -0.743618
 H         4.808194         0.013716         0.809394
 H         1.757591         2.049406         0.439551
 H         1.804218         1.647115        -1.383502
 H         2.573782        -0.616710         2.093956
