19
Iteration:  1145charge 0 multiplicity 1
 C         0.046545         0.090002         0.279171
 C         1.528463         0.014993        -0.033975
 C         1.916142        -1.214130        -0.901558
 C         3.210511        -1.381874        -0.046770
 O         3.939676        -2.548790         0.040012
 C         3.752783        -0.051665         0.416571
 O         3.564320         1.236585        -0.216204
 C         2.181897         1.420382        -0.433123
 C         2.470852        -0.542847         1.050273
 H        -0.032738         0.691482         1.109871
 H        -0.541546         0.379773        -0.656644
 H        -0.346048        -0.975531         0.485432
 H         1.252499        -2.061595        -0.674651
 H         1.917949        -0.878821        -1.992999
 H         4.842288        -2.309460        -0.075944
 H         4.733781        -0.106300         0.866132
 H         1.855724         2.259884         0.160824
 H         1.969657         1.719428        -1.444155
 H         2.135688        -0.551130         2.035812
