19
Iteration:  3778
 C        -0.021872         0.006731         0.417249
 C         1.443658         0.020857         0.031273
 C         1.961386        -1.100329        -0.937309
 C         3.143285        -1.320012        -0.024994
 O         4.101255        -2.421285         0.061875
 C         3.750693        -0.033332         0.412372
 O         3.624010         1.104259        -0.404046
 C         2.130475         1.330715        -0.506413
 C         2.510207        -0.513300         1.122392
 H        -0.275860         0.836722         1.283383
 H        -0.583491         0.415220        -0.395825
 H        -0.468895        -0.958810         0.583152
 H         1.221553        -1.860803        -1.105705
 H         2.252227        -0.854983        -2.046258
 H         3.575488        -3.289377         0.157733
 H         4.738489        -0.040811         0.921217
 H         1.880424         2.081965         0.197881
 H         1.732904         1.670687        -1.548709
 H         2.458590        -0.428458         2.209112
