19
Iteration:   785
 C         0.129245         0.045188         0.317691
 C         1.552034        -0.010566        -0.031704
 C         2.007434        -1.088215        -0.976804
 C         3.139678        -1.377308         0.009830
 O         3.927954        -2.496104        -0.048343
 C         3.671450        -0.055680         0.473756
 O         3.555690         1.175229        -0.251721
 C         2.161120         1.319155        -0.501898
 C         2.461737        -0.523311         1.134397
 H        -0.095236         0.962405         0.938302
 H        -0.463568         0.270380        -0.570889
 H        -0.224949        -0.786010         0.877872
 H         1.238191        -1.866634        -0.988436
 H         2.289985        -0.835497        -1.988130
 H         4.528959        -2.330223         0.719875
 H         4.610493        -0.114741         1.005330
 H         1.798436         2.246822         0.064042
 H         1.963127         1.402877        -1.598940
 H         2.280137        -0.339006         2.192700
