19
Iteration:   766charge 0 multiplicity 1
 C        -0.005064        -0.048095         0.347417
 C         1.488416         0.077982         0.007815
 C         1.901957        -1.134720        -0.976408
 C         3.149494        -1.298113        -0.053046
 O         3.965410        -2.505342         0.013223
 C         3.765238        -0.053738         0.471628
 O         3.687158         1.168616        -0.241941
 C         2.224890         1.412689        -0.549589
 C         2.453932        -0.469989         1.068430
 H        -0.663134         0.621641         1.100235
 H        -0.723523        -0.082547        -0.470693
 H         0.007276        -1.135087         0.744877
 H         1.063431        -1.938318        -0.841033
 H         2.027718        -0.902171        -2.035951
 H         4.414702        -2.538793         0.843335
 H         4.670576        -0.271007         0.992828
 H         1.909296         2.374757         0.042296
 H         2.185747         1.558480        -1.579465
 H         2.066027        -0.931158         2.021914
