19
Iteration:   883charge 0 multiplicity 1
 C         0.055651        -0.193900         0.365555
 C         1.525655         0.096883        -0.041865
 C         2.072734        -0.967184        -1.091164
 C         3.214437        -1.345684        -0.059917
 O         3.746467        -2.616648         0.232781
 C         3.776684         0.002910         0.424792
 O         3.599383         1.175888        -0.342596
 C         2.202173         1.464228        -0.330731
 C         2.463742        -0.455147         0.987597
 H        -0.237582         0.497382         1.126952
 H        -0.657487        -0.027363        -0.425953
 H         0.005902        -1.235075         0.668285
 H         1.371916        -1.845877        -1.108912
 H         2.310385        -0.663365        -2.111370
 H         4.180742        -3.000951        -0.576988
 H         4.700509         0.032458         0.982073
 H         1.914913         2.145011         0.399841
 H         2.064009         1.881130        -1.360905
 H         2.214792        -0.759529         2.076490
