19
Iteration:  1588charge 0 multiplicity 1
 C        -0.048877         0.269006         0.253280
 C         1.502079        -0.091085         0.015678
 C         2.037174        -1.234732        -0.913011
 C         3.204090        -1.341624        -0.022307
 O         3.995983        -2.524611        -0.029530
 C         3.848614         0.024538         0.446523
 O         3.496834         1.267404        -0.161080
 C         2.089457         1.156077        -0.505331
 C         2.571330        -0.502258         1.158955
 H        -0.010862         1.126381         1.055230
 H        -0.583176         0.682870        -0.656659
 H        -0.606279        -0.514238         0.723390
 H         1.311297        -2.109607        -0.879161
 H         2.246642        -0.935225        -1.915673
 H         4.103387        -2.722466        -0.934517
 H         4.770966        -0.022529         0.971870
 H         1.437604         2.033234        -0.235443
 H         1.975578         1.211267        -1.531508
 H         2.167585        -0.800281         2.215301
