19
Iteration:  1766charge 0 multiplicity 1
 C         0.015260         0.342483         0.456887
 C         1.450393        -0.111506        -0.023992
 C         1.964467        -1.308481        -0.972031
 C         3.189984        -1.327835        -0.042397
 O         4.036121        -2.403613        -0.059432
 C         3.662071         0.044984         0.557506
 O         3.534027         1.240382        -0.157370
 C         2.221690         1.139835        -0.659422
 C         2.480067        -0.597899         1.112051
 H         0.072379         1.260539         0.974446
 H        -0.643293         0.316262        -0.544110
 H        -0.431811        -0.526642         0.989687
 H         1.409007        -2.144239        -0.874147
 H         2.120366        -1.136887        -2.072237
 H         4.844146        -2.285195        -0.511579
 H         4.674103        -0.101386         1.195414
 H         1.479459         2.008424        -0.415065
 H         2.375155         0.977276        -1.673488
 H         2.306494        -0.738621         2.221440
