19
Iteration:  2555
 C         0.031823         0.185043         0.244486
 C         1.481519        -0.010622         0.086641
 C         1.827621        -1.276546        -0.754867
 C         3.212467        -1.368577         0.028665
 O         4.139967        -2.409740        -0.104568
 C         3.711237        -0.065235         0.496631
 O         3.563920         1.183879        -0.330352
 C         2.167630         1.265581        -0.523771
 C         2.494567        -0.480322         1.159491
 H        -0.104408         0.769705         1.025420
 H        -0.517838         0.620575        -0.741034
 H        -0.443668        -0.826604         0.426072
 H         1.192183        -1.992126        -0.454501
 H         1.856273        -1.262626        -1.871451
 H         4.307725        -2.293563        -1.021006
 H         4.724960        -0.221901         1.070981
 H         1.822463         2.168451        -0.034275
 H         1.612354         1.376809        -1.555841
 H         2.313091        -0.522264         2.230075
