19
Iteration:  2496
 C         0.103222         0.008143         0.428211
 C         1.542320        -0.033362        -0.028970
 C         2.017722        -1.085166        -1.042009
 C         3.204589        -1.360318        -0.074989
 O         3.953189        -2.533454         0.117814
 C         3.729559         0.064974         0.459173
 O         3.492278         1.229743        -0.289208
 C         2.102248         1.316147        -0.503293
 C         2.576405        -0.525098         1.004084
 H        -0.026624         0.961964         1.160956
 H        -0.594992         0.126644        -0.317253
 H        -0.183500        -0.884889         1.038402
 H         1.209853        -1.909143        -1.171001
 H         2.401347        -0.767057        -1.999132
 H         3.262974        -3.149785         0.549933
 H         4.682149        -0.000169         0.841462
 H         1.795205         2.181406         0.130350
 H         1.835944         1.557410        -1.529562
 H         2.321674        -0.684733         2.086511
