19
Iteration:  3866charge 0 multiplicity 1
 C         0.097118        -0.163935         0.376444
 C         1.519505         0.087496         0.092636
 C         2.032078        -0.992547        -0.947584
 C         3.159446        -1.303669        -0.002368
 O         3.848799        -2.527734         0.045607
 C         3.800181         0.020119         0.411526
 O         3.507576         1.100300        -0.485849
 C         2.141619         1.345468        -0.398558
 C         2.548242        -0.436581         1.058607
 H        -0.248357         0.499599         1.312445
 H        -0.414556         0.033665        -0.538127
 H        -0.124287        -1.128768         0.730727
 H         1.439477        -1.893295        -1.063244
 H         2.277977        -0.655979        -2.074432
 H         3.794717        -2.728538         1.041398
 H         4.845534         0.032132         0.810537
 H         2.019042         2.314945         0.032933
 H         1.770149         1.506501        -1.455540
 H         2.494886        -0.622758         2.108805
