19
Iteration:  4389
 C         0.108651        -0.093579         0.369704
 C         1.581443        -0.014365         0.052375
 C         2.088577        -1.127701        -0.979380
 C         3.215349        -1.361121         0.024632
 O         3.727420        -2.692989         0.065428
 C         3.809664         0.045618         0.298490
 O         3.456019         1.262644        -0.434561
 C         2.018101         1.450207        -0.422665
 C         2.691315        -0.385192         1.128040
 H        -0.119488         0.699559         1.157228
 H        -0.518857         0.341667        -0.474243
 H        -0.126102        -1.134748         0.670230
 H         1.349866        -1.993091        -0.935757
 H         2.256591        -0.941210        -2.038386
 H         4.341469        -2.666265         0.883636
 H         4.815140         0.020725         0.658279
 H         1.869540         2.051501         0.409435
 H         1.585244         1.858465        -1.340733
 H         2.585377        -0.326639         2.211114
