19
Iteration:   899
 C         0.117693        -0.085214         0.357995
 C         1.561811         0.023556        -0.075617
 C         2.206042        -0.993493        -1.060304
 C         3.272721        -1.267378        -0.075640
 O         3.585199        -2.644551         0.144243
 C         3.810227         0.077623         0.560858
 O         3.511571         1.150186        -0.363875
 C         2.069029         1.438192        -0.398904
 C         2.572185        -0.572437         1.032224
 H        -0.177926         0.688059         1.191506
 H        -0.532206        -0.015558        -0.552783
 H         0.020571        -1.009226         1.008242
 H         1.494139        -1.847332        -1.027493
 H         2.441704        -0.739338        -2.123150
 H         4.361855        -2.817235        -0.363274
 H         4.719592         0.095185         1.194947
 H         1.913795         2.287092         0.395005
 H         1.696110         1.743137        -1.355986
 H         2.325687        -0.733410         2.016764
