19
Iteration:   104charge 0 multiplicity 1
 C         0.013172         0.113937         0.242029
 C         1.508031        -0.046584        -0.038489
 C         2.091065        -1.128093        -0.960758
 C         3.206188        -1.326489         0.058065
 O         3.873731        -2.555920         0.061173
 C         3.738562         0.029838         0.466003
 O         3.552155         1.127330        -0.394147
 C         2.124747         1.291043        -0.345731
 C         2.535436        -0.480925         1.124274
 H        -0.061164         0.757992         1.156768
 H        -0.531638         0.634675        -0.575435
 H        -0.580392        -0.828121         0.514131
 H         1.307511        -2.003105        -0.948399
 H         2.444805        -0.862769        -1.941997
 H         4.593375        -2.494936        -0.660307
 H         4.666477         0.204999         0.962830
 H         1.897976         2.005930         0.502934
 H         1.790391         1.669393        -1.401156
 H         2.188914        -0.473397         2.133358
