19
Iteration:   231
 C         0.019347         0.257071         0.231235
 C         1.491637        -0.062021         0.042516
 C         2.051879        -1.145369        -0.908817
 C         3.235573        -1.282117        -0.069333
 O         3.908729        -2.457445         0.063822
 C         3.785652        -0.015055         0.528897
 O         3.515911         1.084791        -0.342541
 C         2.091619         1.262805        -0.437569
 C         2.530312        -0.614805         1.101871
 H        -0.102493         0.847772         1.149099
 H        -0.450162         0.733475        -0.605746
 H        -0.588109        -0.724905         0.473627
 H         1.404478        -2.055173        -0.958598
 H         2.312291        -0.731866        -1.930054
 H         4.600739        -2.557658        -0.644489
 H         4.687062         0.060123         1.091685
 H         1.743333         2.122352         0.262545
 H         1.841852         1.607965        -1.382478
 H         2.420283        -0.957088         2.100257
