19
Iteration:  4992
 C         0.076122        -0.105324         0.396917
 C         1.517434         0.032222         0.040168
 C         1.990168        -1.087672        -0.968194
 C         3.161572        -1.290901         0.000739
 O         3.977185        -2.441701        -0.001043
 C         3.728256         0.052034         0.479361
 O         3.572009         1.102903        -0.364184
 C         2.190670         1.326887        -0.491399
 C         2.456533        -0.462515         1.089681
 H        -0.151736         0.658964         1.225259
 H        -0.526651         0.074324        -0.496472
 H        -0.065035        -1.084108         0.706213
 H         1.246029        -1.868199        -1.076862
 H         2.070698        -0.830819        -2.063074
 H         3.432510        -3.269512         0.278739
 H         4.724848         0.011507         0.889059
 H         1.839807         2.135147         0.131307
 H         1.946809         1.656117        -1.593003
 H         2.390943        -0.441100         2.231112
