19
Iteration:  1902charge 0 multiplicity 1
 C         0.184230        -0.055054         0.346559
 C         1.568969         0.008966        -0.042490
 C         1.989055        -1.181631        -0.956807
 C         3.181419        -1.310687        -0.059416
 O         3.812272        -2.547710         0.035982
 C         3.744703         0.014625         0.403158
 O         3.535014         1.264884        -0.247336
 C         2.132316         1.372566        -0.508352
 C         2.487760        -0.488550         1.053158
 H        -0.055282         0.765571         1.158101
 H        -0.478839        -0.010513        -0.472009
 H        -0.132357        -1.026642         0.901527
 H         1.361139        -2.134141        -0.719413
 H         2.092784        -1.090914        -1.992580
 H         4.603359        -2.377630         0.658246
 H         4.633790         0.106735         1.093873
 H         1.766308         2.074325         0.298903
 H         2.055359         1.795220        -1.500459
 H         2.268616        -0.702979         2.075036
