19
Iteration:  3203
 C         0.017952        -0.005422         0.457019
 C         1.470916        -0.029220        -0.004040
 C         2.076224        -1.039645        -0.991554
 C         3.214882        -1.393874         0.030122
 O         3.967338        -2.510118         0.112665
 C         3.781659         0.054318         0.356518
 O         3.537704         1.160308        -0.448320
 C         2.052990         1.318770        -0.411946
 C         2.567322        -0.474581         1.039098
 H        -0.077493         0.799798         1.130059
 H        -0.754989         0.144767        -0.442983
 H        -0.169817        -0.990016         0.860046
 H         1.345593        -1.785613        -1.193405
 H         2.381858        -0.691085        -2.089773
 H         3.497171        -3.124814         0.645600
 H         4.722872        -0.039493         0.828137
 H         1.810240         2.208450         0.252708
 H         1.698317         1.616946        -1.485882
 H         2.426158        -0.512070         2.116987
