19
Iteration:  3575
 C         0.058705         0.168461         0.347083
 C         1.466758        -0.026556        -0.004220
 C         1.984252        -1.224383        -0.858541
 C         3.211559        -1.339197        -0.021826
 O         4.061927        -2.429117        -0.032390
 C         3.690496         0.050870         0.443330
 O         3.539446         1.132010        -0.344768
 C         2.137083         1.307860        -0.500099
 C         2.515944        -0.517916         1.089894
 H         0.009581         0.985943         0.962757
 H        -0.694441         0.316997        -0.550492
 H        -0.292059        -0.763261         0.915364
 H         1.372017        -2.117008        -0.494478
 H         2.155759        -1.240828        -1.959126
 H         3.613334        -3.217394         0.319990
 H         4.645722         0.086570         0.897374
 H         1.790748         2.037093         0.252851
 H         1.808119         1.526367        -1.462294
 H         2.337976        -0.690659         2.155190
