19
Iteration:   438charge 0 multiplicity 1
 C        -0.016484         0.155477         0.354692
 C         1.440988         0.017405        -0.004240
 C         2.022137        -1.152638        -0.949714
 C         3.229836        -1.332529        -0.006133
 O         3.986485        -2.516864        -0.086869
 C         3.709545         0.002836         0.587479
 O         3.607710         1.123431        -0.317589
 C         2.166932         1.289447        -0.531151
 C         2.453266        -0.531398         1.101360
 H        -0.157874         0.912237         1.217683
 H        -0.603616         0.434394        -0.504045
 H        -0.383143        -0.843339         0.776253
 H         1.445556        -2.093078        -1.052453
 H         2.165377        -0.782410        -1.976409
 H         4.692522        -2.553867         0.526844
 H         4.589183        -0.124451         1.256780
 H         1.726780         2.072966         0.026129
 H         1.938373         1.565882        -1.658481
 H         2.145559        -0.486548         2.182886
