19
Iteration:  2760
 C        -0.028233         0.208093         0.292512
 C         1.490179         0.032301         0.109229
 C         1.908062        -1.305086        -0.785413
 C         3.194588        -1.399649        -0.044071
 O         4.133485        -2.356211        -0.164586
 C         3.720137        -0.048204         0.411653
 O         3.536037         1.231859        -0.219459
 C         2.150487         1.200767        -0.600942
 C         2.576246        -0.478283         1.212409
 H        -0.296558         0.999390         1.129397
 H        -0.499426         0.573625        -0.615864
 H        -0.492200        -0.769751         0.698564
 H         1.215505        -2.234989        -0.606997
 H         1.961263        -1.182650        -1.916590
 H         3.893378        -3.173220         0.235233
 H         4.698795        -0.190625         0.766234
 H         1.672962         2.181362        -0.257561
 H         1.935909         0.998738        -1.644147
 H         2.210875        -0.527417         2.169523
