19
Iteration:  2512
 C         0.013305         0.110130         0.426399
 C         1.493817        -0.030610         0.006351
 C         2.022074        -1.164091        -0.966706
 C         3.241859        -1.289672        -0.058718
 O         3.963785        -2.506644         0.061263
 C         3.820257         0.004734         0.400406
 O         3.548383         1.277129        -0.248890
 C         2.082451         1.259301        -0.548439
 C         2.510597        -0.564647         1.101095
 H        -0.111307         0.893494         1.052253
 H        -0.714644         0.249086        -0.489219
 H        -0.345579        -0.798233         0.913568
 H         1.580094        -2.091211        -0.846039
 H         2.030557        -0.824447        -2.022494
 H         3.470784        -3.263574        -0.270856
 H         4.743141         0.077044         1.072106
 H         1.522526         2.153652        -0.256244
 H         2.092237         1.328077        -1.678462
 H         2.470187        -0.752956         2.165491
