19
Iteration:  1618charge 0 multiplicity 1
 C         0.058341        -0.072292         0.311922
 C         1.540298         0.060710        -0.024261
 C         1.999309        -1.091253        -0.948423
 C         3.220617        -1.310219        -0.089828
 O         3.826000        -2.570808         0.149223
 C         3.734210         0.017944         0.421096
 O         3.593035         1.256614        -0.297600
 C         2.152667         1.378249        -0.431027
 C         2.501057        -0.543038         1.040123
 H        -0.125575         0.525104         1.304756
 H        -0.673438         0.061866        -0.454004
 H         0.070741        -1.122099         0.769747
 H         1.212039        -1.951807        -0.852161
 H         2.151983        -0.833739        -2.004170
 H         4.566396        -2.719535        -0.525446
 H         4.642851         0.049596         1.099026
 H         1.789927         2.230749         0.160114
 H         2.019119         1.547903        -1.642362
 H         2.298523        -0.842791         2.124235
