19
Iteration:  2384charge 0 multiplicity 1
 C         0.034359         0.115718         0.389594
 C         1.495437        -0.054679        -0.088900
 C         1.979902        -1.235738        -0.961520
 C         3.242149        -1.330362        -0.035143
 O         4.073014        -2.411304         0.039323
 C         3.740444        -0.016821         0.437787
 O         3.509807         1.207091        -0.217230
 C         2.166115         1.348694        -0.543108
 C         2.408719        -0.530526         1.045417
 H        -0.014031         1.120826         1.086789
 H        -0.669041         0.253840        -0.359738
 H        -0.190291        -0.690845         1.025773
 H         1.422179        -2.261793        -0.762305
 H         2.064709        -1.120634        -2.039130
 H         3.506124        -3.191504         0.112428
 H         4.644509        -0.003346         1.172069
 H         1.912156         2.215003         0.122477
 H         1.997435         1.379304        -1.597191
 H         2.339765        -0.787646         2.109999
