19
Iteration:  4108charge 0 multiplicity 1
 C         0.072687         0.153242         0.463622
 C         1.501061        -0.008006         0.043836
 C         2.007505        -1.131246        -0.835862
 C         3.208482        -1.337339         0.000016
 O         4.005695        -2.487046        -0.108449
 C         3.704588        -0.020794         0.484605
 O         3.497452         1.097532        -0.373236
 C         2.091482         1.256657        -0.597211
 C         2.500764        -0.500428         1.144457
 H        -0.023031         1.080271         1.172919
 H        -0.530371         0.605575        -0.360043
 H        -0.299492        -0.764570         0.810100
 H         1.314957        -1.856897        -0.816878
 H         2.308115        -0.976254        -1.972633
 H         4.818677        -2.234449         0.295446
 H         4.803403         0.084096         0.821541
 H         1.627468         2.194339        -0.322481
 H         1.905127         1.035419        -1.565367
 H         2.121665        -0.692871         2.157087
