19
Iteration:   342charge 0 multiplicity 1
 C         0.102830        -0.101786         0.356609
 C         1.517165        -0.035740        -0.119359
 C         2.156627        -1.028633        -1.069579
 C         3.125225        -1.389784        -0.020179
 O         3.756519        -2.628379         0.224419
 C         3.767921         0.035216         0.370987
 O         3.596207         1.257028        -0.319762
 C         2.108448         1.407002        -0.353281
 C         2.522140        -0.418207         1.029335
 H        -0.053094         0.545706         1.141788
 H        -0.617831         0.001151        -0.396296
 H        -0.077372        -1.081937         0.996597
 H         1.413747        -1.849064        -1.388386
 H         2.659479        -0.663330        -1.962189
 H         4.009983        -2.838937        -0.689096
 H         4.693299        -0.041910         0.977708
 H         1.691302         2.045621         0.557788
 H         1.848535         1.865583        -1.228910
 H         2.318623        -0.463611         2.142566
