19
Iteration:  4126charge 0 multiplicity 1
 C         0.055869         0.203173         0.400362
 C         1.473512        -0.053306         0.137554
 C         1.961445        -1.184078        -0.936617
 C         3.205180        -1.341003         0.030275
 O         3.997072        -2.499386        -0.068967
 C         3.735614        -0.034883         0.402584
 O         3.518012         1.200556        -0.361546
 C         2.100777         1.228878        -0.586562
 C         2.556063        -0.528214         1.175801
 H        -0.021592         1.035947         1.135709
 H        -0.555003         0.436189        -0.453780
 H        -0.497960        -0.723315         0.796055
 H         1.379375        -2.202481        -1.024421
 H         2.098226        -0.885215        -1.998774
 H         4.798487        -2.407812         0.398710
 H         4.660057         0.135599         0.932892
 H         1.689007         2.133077        -0.037511
 H         1.732884         1.502763        -1.705967
 H         2.551012        -0.541518         2.318570
