19
Iteration:   178
 C         0.152093        -0.163827         0.328836
 C         1.572489         0.065573        -0.105959
 C         2.037088        -1.116813        -1.089828
 C         3.124823        -1.264462        -0.029591
 O         3.722878        -2.575692         0.216295
 C         3.784462        -0.000886         0.397590
 O         3.603854         1.220459        -0.299454
 C         2.178188         1.461399        -0.376431
 C         2.444635        -0.506907         1.024439
 H        -0.052104         0.412261         1.127767
 H        -0.621456        -0.137666        -0.352340
 H         0.175287        -1.178171         0.933358
 H         1.224536        -1.837069        -0.787408
 H         2.165655        -0.978967        -2.094555
 H         4.465888        -2.606852        -0.436387
 H         4.741329         0.046135         0.883302
 H         1.915231         2.088111         0.449499
 H         2.110997         1.982625        -1.285492
 H         2.252310        -0.598591         2.062360
