19
Iteration:  3714charge 0 multiplicity 1
 C        -0.046277         0.167685         0.299334
 C         1.499201        -0.007635         0.126961
 C         1.928710        -1.199663        -0.859651
 C         3.208183        -1.312608        -0.023968
 O         4.098595        -2.405939        -0.056553
 C         3.798543        -0.011261         0.383933
 O         3.543768         1.173317        -0.262983
 C         2.080963         1.214413        -0.529338
 C         2.526700        -0.508638         1.158768
 H        -0.281274         1.165433         0.817168
 H        -0.452064         0.389660        -0.693449
 H        -0.538132        -0.696300         0.604176
 H         1.276119        -2.035779        -0.579369
 H         2.137926        -1.101489        -1.906940
 H         3.601597        -3.286678        -0.000909
 H         4.843664        -0.155977         0.758507
 H         1.811254         2.187880        -0.074674
 H         2.056630         1.237684        -1.701345
 H         2.459919        -0.888514         2.179373
