19
Iteration:   401
 C        -0.014073         0.137118         0.237541
 C         1.522014        -0.063968         0.024313
 C         2.032992        -1.132845        -0.993790
 C         3.204631        -1.363053         0.029658
 O         3.910458        -2.587525         0.042428
 C         3.776595         0.006967         0.483523
 O         3.542034         1.173149        -0.399196
 C         2.086205         1.323682        -0.336282
 C         2.525077        -0.495970         1.132129
 H        -0.294813         0.783311         1.108401
 H        -0.516926         0.620373        -0.688921
 H        -0.466459        -0.779656         0.304520
 H         1.465332        -2.028648        -1.096665
 H         2.452091        -0.745434        -1.949402
 H         4.814838        -2.394435        -0.202718
 H         4.714230         0.058295         0.991640
 H         1.853585         2.051759         0.449218
 H         1.936940         1.760363        -1.356769
 H         2.333218        -0.454790         2.183357
