19
Iteration:   416
 C         0.132640         0.176507         0.261228
 C         1.521530         0.034782        -0.017494
 C         2.193074        -1.172913        -0.895438
 C         3.192989        -1.387484         0.079974
 O         3.923911        -2.577770        -0.073519
 C         3.680041        -0.015705         0.451377
 O         3.474151         1.110410        -0.339806
 C         2.080141         1.349135        -0.414367
 C         2.425553        -0.481802         1.139331
 H         0.005605         0.889802         1.203731
 H        -0.376516         0.637964        -0.588387
 H        -0.515732        -0.757521         0.575445
 H         1.416388        -1.966075        -1.006560
 H         2.476679        -0.932427        -1.947485
 H         4.916167        -2.328807         0.053204
 H         4.636259         0.064256         1.026373
 H         1.770421         2.165775         0.214753
 H         1.483084         1.626590        -1.442931
 H         2.241089        -0.766829         2.224387
