19
Iteration:  4979charge 0 multiplicity 1
 C         0.050874        -0.084704         0.411382
 C         1.511516         0.008055        -0.047000
 C         2.059058        -1.139071        -0.964989
 C         3.175803        -1.366693         0.003088
 O         3.945484        -2.493882        -0.001984
 C         3.722070        -0.016410         0.446423
 O         3.578452         1.197990        -0.416621
 C         2.142291         1.471330        -0.430772
 C         2.500245        -0.459554         1.101858
 H        -0.191894         0.749417         1.221711
 H        -0.701750        -0.068044        -0.358201
 H        -0.104621        -1.029783         1.018738
 H         1.469362        -2.003787        -0.960580
 H         2.464630        -0.905735        -1.934806
 H         3.441657        -3.175688         0.372991
 H         4.560976         0.047871         1.205290
 H         1.956493         2.394227         0.134306
 H         1.829605         1.611028        -1.502426
 H         2.094923        -0.641273         2.207661
