19
Iteration:  3337charge 0 multiplicity 1
 C         0.083525         0.175154         0.283609
 C         1.498430        -0.019085         0.016834
 C         1.890592        -1.308316        -0.758134
 C         3.161497        -1.361983        -0.039785
 O         4.207246        -2.373592        -0.104894
 C         3.648691        -0.090620         0.501153
 O         3.532004         1.146491        -0.310731
 C         2.105796         1.308018        -0.524548
 C         2.491008        -0.426692         1.154305
 H         0.179603         1.053363         1.033646
 H        -0.522243         0.598293        -0.453730
 H        -0.574452        -0.663935         0.720834
 H         1.150720        -2.187294        -0.468256
 H         1.966677        -1.272660        -1.925403
 H         3.839472        -3.226651        -0.250489
 H         4.714637        -0.189127         0.768166
 H         1.724191         2.238113        -0.052810
 H         2.073707         1.497978        -1.582954
 H         2.213431        -0.335543         2.216557
