19
Iteration:  2376
 C         0.080926         0.134971         0.422902
 C         1.488618        -0.033696        -0.075503
 C         1.945785        -1.244561        -0.989830
 C         3.175490        -1.310009        -0.052637
 O         4.121527        -2.380422         0.006459
 C         3.707210        -0.009963         0.478957
 O         3.529809         1.160188        -0.162874
 C         2.180732         1.340578        -0.628671
 C         2.419074        -0.585182         1.047388
 H         0.014899         1.103912         0.996454
 H        -0.621858         0.181057        -0.366237
 H        -0.187268        -0.681677         1.085106
 H         1.295314        -2.078801        -0.677335
 H         2.008229        -1.210528        -2.022360
 H         3.686756        -3.017665         0.544874
 H         4.603951        -0.049799         1.136474
 H         1.663118         2.121309        -0.037895
 H         2.047249         1.620130        -1.690482
 H         2.241209        -0.770982         2.056221
