19
Iteration:   136charge 0 multiplicity 1
 C        -0.012397        -0.049092         0.235596
 C         1.539949         0.057059         0.045987
 C         2.160145        -0.895851        -1.031239
 C         3.232924        -1.396293        -0.010697
 O         3.795656        -2.618517         0.275065
 C         3.805299         0.007160         0.336860
 O         3.489911         1.142222        -0.454857
 C         2.103633         1.412251        -0.280198
 C         2.585153        -0.564117         1.058733
 H        -0.242142         0.596302         1.059669
 H        -0.527565         0.306218        -0.646252
 H        -0.400396        -1.083196         0.581751
 H         1.279733        -1.661142        -1.211916
 H         2.585018        -0.584709        -1.929767
 H         4.373157        -2.979777        -0.360167
 H         4.745373         0.127729         0.818830
 H         1.961166         2.239863         0.410057
 H         1.498937         1.729891        -1.219683
 H         2.316843        -0.734025         2.076886
