19
Iteration:  3417charge 0 multiplicity 1
 C         0.065880        -0.051521         0.414838
 C         1.542716         0.023835        -0.082096
 C         1.994953        -1.210334        -1.047790
 C         3.181065        -1.392963        -0.018010
 O         3.999407        -2.486226         0.152433
 C         3.759364        -0.017850         0.362791
 O         3.577410         1.239973        -0.365140
 C         2.092319         1.454191        -0.426426
 C         2.482190        -0.482744         1.039352
 H        -0.060966         0.806185         1.262684
 H        -0.620898         0.217662        -0.360574
 H        -0.147944        -0.946318         0.979170
 H         1.214863        -2.120313        -0.777281
 H         2.045900        -0.938509        -2.161914
 H         3.372238        -3.148938         0.365780
 H         4.720492        -0.051193         0.866964
 H         1.757290         2.096295         0.485908
 H         1.877251         1.966533        -1.309058
 H         2.338546        -0.614626         2.089401
