19
Iteration:  3464charge 0 multiplicity 1
 C         0.050497        -0.071214         0.326807
 C         1.512875         0.031768         0.083481
 C         2.071822        -0.952904        -0.976634
 C         3.214033        -1.365014        -0.005339
 O         3.903801        -2.529271         0.172013
 C         3.793029         0.002341         0.397230
 O         3.431111         1.086295        -0.585579
 C         2.079716         1.407311        -0.350030
 C         2.629252        -0.511906         1.121782
 H        -0.358838         0.319799         1.183922
 H        -0.432457         0.461773        -0.604747
 H        -0.195073        -1.103597         0.299619
 H         1.460814        -1.826375        -1.337236
 H         2.610596        -0.453948        -1.768399
 H         3.263703        -3.144071         0.646190
 H         4.879322         0.239229         0.728406
 H         2.043624         2.278780         0.338778
 H         1.688080         1.659917        -1.310149
 H         2.603519        -0.637005         2.227094
