19
Iteration:  4432
 C        -0.024392        -0.097689         0.559370
 C         1.464835        -0.004942         0.026336
 C         2.048096        -1.069826        -0.997590
 C         3.197343        -1.255587        -0.053642
 O         3.818822        -2.452451         0.041523
 C         3.802961        -0.011107         0.414504
 O         3.586762         1.074089        -0.519148
 C         2.199612         1.368887        -0.472561
 C         2.528061        -0.483956         1.135937
 H        -0.186153         0.677449         1.257703
 H        -0.736534         0.267021        -0.266317
 H        -0.294519        -1.164553         0.780640
 H         1.508303        -2.057213        -1.144870
 H         2.312432        -0.644869        -1.982827
 H         4.465456        -2.458602         0.841754
 H         4.796809         0.066352         0.754056
 H         1.746776         2.181618         0.253368
 H         1.983961         1.574625        -1.466225
 H         2.450174        -0.545683         2.213618
