19
Iteration:  2294
 C        -0.001984        -0.032053         0.165471
 C         1.506214        -0.020420         0.036911
 C         2.087330        -1.167956        -0.937480
 C         3.185015        -1.327458         0.007526
 O         3.874272        -2.545672         0.080095
 C         3.774257         0.019141         0.477711
 O         3.548675         1.180576        -0.387339
 C         2.107536         1.436152        -0.332650
 C         2.549437        -0.495078         1.114616
 H        -0.334590         0.465486         1.069045
 H        -0.588359         0.451339        -0.660683
 H        -0.389353        -1.101422         0.341445
 H         1.376297        -1.969841        -0.962893
 H         2.417896        -0.797728        -1.936484
 H         4.508919        -2.471270        -0.667548
 H         4.702319         0.072626         0.873374
 H         1.966502         2.079650         0.560310
 H         1.763115         1.750472        -1.339475
 H         2.452132        -0.395116         2.215540
