19
Iteration:  2077charge 0 multiplicity 1
 C         0.188238        -0.322535         0.342790
 C         1.554789         0.080106        -0.004084
 C         2.077432        -1.036787        -1.071052
 C         3.173768        -1.301755        -0.045933
 O         3.687115        -2.621567         0.252804
 C         3.830604         0.058514         0.377800
 O         3.538308         1.260495        -0.420957
 C         2.111837         1.497444        -0.355216
 C         2.547357        -0.435129         1.080598
 H        -0.217533         0.263027         1.255641
 H        -0.419941        -0.022933        -0.419371
 H         0.025008        -1.428591         0.509300
 H         1.453205        -2.064255        -1.071616
 H         2.374670        -0.844890        -2.111804
 H         3.754669        -3.045226        -0.630925
 H         4.799206         0.043645         0.993808
 H         1.979111         2.337196         0.399919
 H         1.670616         1.841917        -1.298517
 H         2.299790        -0.579230         2.127377
