19
Iteration:  2246charge 0 multiplicity 1
 C         0.088624        -0.093162         0.399510
 C         1.513097         0.026631        -0.113181
 C         2.131816        -0.995445        -1.222212
 C         3.207942        -1.330805        -0.082065
 O         3.823021        -2.539776         0.373114
 C         3.736354        -0.016378         0.358414
 O         3.515191         1.196917        -0.405580
 C         2.113032         1.439653        -0.225680
 C         2.521565        -0.582953         1.005011
 H        -0.219793         0.602162         1.130293
 H        -0.697484         0.039094        -0.443200
 H        -0.051544        -1.086588         0.822825
 H         1.404912        -1.794042        -1.467255
 H         2.578123        -0.493513        -2.162642
 H         4.297518        -2.963685        -0.400643
 H         4.693662         0.113567         1.021052
 H         1.909531         1.988764         0.668500
 H         1.719424         1.771379        -1.160367
 H         2.338836        -0.865514         2.035516
