19
Iteration:  1866
 C         0.014625        -0.177450         0.370526
 C         1.508610         0.023453         0.031841
 C         2.193298        -0.915385        -1.022888
 C         3.203320        -1.311028         0.007927
 O         3.742102        -2.666224         0.181989
 C         3.816904         0.020187         0.288245
 O         3.515130         1.151525        -0.527799
 C         2.113636         1.427554        -0.328107
 C         2.541054        -0.468660         1.082150
 H        -0.340608         0.512743         1.047389
 H        -0.522294         0.072317        -0.607873
 H        -0.152380        -1.288021         0.647905
 H         1.630501        -1.672850        -1.382293
 H         2.631894        -0.354111        -1.871500
 H         4.466617        -2.583608         0.898053
 H         4.591748         0.196212         0.931883
 H         1.895161         2.071387         0.564796
 H         1.687303         1.948485        -1.073392
 H         2.429122        -0.664146         2.170183
