19
Iteration:  1240
 C         0.024124        -0.079118         0.171023
 C         1.556140         0.040350         0.013194
 C         1.998836        -1.057968        -0.949837
 C         3.164564        -1.353703        -0.071807
 O         3.811931        -2.513612         0.182194
 C         3.813570         0.005142         0.376689
 O         3.576893         1.190501        -0.336946
 C         2.152274         1.380807        -0.250618
 C         2.573996        -0.506565         1.057959
 H        -0.327688         0.345068         1.157144
 H        -0.564603         0.269944        -0.773310
 H        -0.147343        -1.124196         0.309591
 H         1.301730        -1.841594        -0.994074
 H         2.261732        -0.733272        -2.019009
 H         4.223089        -2.969521        -0.606512
 H         4.756697        -0.044689         0.874891
 H         1.878973         2.255154         0.440717
 H         1.707164         1.816886        -1.188932
 H         2.424729        -0.754033         2.082007
