19
Iteration:  4380charge 0 multiplicity 1
 C         0.043481        -0.074429         0.351614
 C         1.569905         0.010814         0.081535
 C         2.079594        -1.164491        -0.936235
 C         3.183675        -1.364103        -0.001266
 O         3.725828        -2.610629         0.093934
 C         3.830537         0.050956         0.235845
 O         3.548734         1.276181        -0.432202
 C         2.030129         1.371853        -0.359816
 C         2.678584        -0.410909         1.071722
 H        -0.210230         0.673947         1.230791
 H        -0.542057         0.128195        -0.518417
 H        -0.280156        -1.020218         0.639249
 H         1.384966        -1.930184        -0.940950
 H         2.331269        -0.831658        -1.971504
 H         4.420071        -2.756974         0.819418
 H         4.809701         0.139733         0.618051
 H         1.710481         2.082626         0.364934
 H         1.510880         1.665669        -1.366411
 H         2.615580        -0.641187         2.166948
