19
Iteration:  4966charge 0 multiplicity 1
 C         0.017668        -0.030572         0.433422
 C         1.478422         0.062556        -0.053564
 C         2.128217        -1.129631        -1.016599
 C         3.228069        -1.343633         0.038077
 O         3.952345        -2.576097         0.046237
 C         3.796919        -0.022873         0.434469
 O         3.548632         1.228804        -0.405719
 C         2.068641         1.418602        -0.434456
 C         2.470573        -0.470636         1.046888
 H        -0.252424         0.909908         1.004744
 H        -0.733478        -0.046868        -0.406889
 H        -0.133544        -1.042447         1.105920
 H         1.375478        -1.939827        -0.920707
 H         2.454529        -0.817451        -2.005436
 H         3.371691        -3.326303         0.436430
 H         4.857543        -0.068524         0.831750
 H         1.698489         2.000065         0.487216
 H         1.874971         1.873324        -1.359455
 H         2.352985        -0.592086         2.147640
