19
Iteration:  2428charge 0 multiplicity 1
 C         0.036632        -0.113324         0.175407
 C         1.527425         0.056077         0.109035
 C         2.138369        -1.014342        -0.872007
 C         3.218544        -1.313234         0.011931
 O         3.779922        -2.576158         0.154196
 C         3.806651         0.029343         0.352217
 O         3.469128         1.116759        -0.515494
 C         2.090074         1.416194        -0.318528
 C         2.599559        -0.490897         1.135430
 H        -0.344652         0.401610         1.242674
 H        -0.449620         0.353446        -0.634811
 H        -0.165912        -1.139683         0.264215
 H         1.377365        -1.925587        -1.021813
 H         2.462585        -0.637930        -1.860339
 H         4.430081        -2.579882        -0.581399
 H         4.800826         0.081730         0.915260
 H         1.722829         2.172974         0.440590
 H         1.772682         1.554493        -1.322390
 H         2.533218        -0.576726         2.177261
