19
Iteration:  4269
 C         0.024346         0.054273         0.313832
 C         1.527989        -0.016597         0.108891
 C         1.856033        -1.222824        -0.929062
 C         3.156928        -1.378956        -0.099962
 O         3.970156        -2.526365         0.175784
 C         3.811411        -0.020341         0.310568
 O         3.546940         1.329941        -0.302935
 C         2.101528         1.348039        -0.452869
 C         2.596932        -0.501007         1.084948
 H        -0.182284         0.741868         1.114254
 H        -0.541440         0.496960        -0.466421
 H        -0.313553        -0.939460         0.503234
 H         1.286814        -2.177800        -0.864011
 H         1.940290        -0.949500        -1.967627
 H         4.528711        -2.638044        -0.570417
 H         4.902608        -0.103457         0.652560
 H         1.841503         2.254048         0.103413
 H         1.809958         1.425461        -1.594845
 H         2.688347        -0.918964         2.056491
