19
Iteration:  1680
 C         0.071258        -0.094081         0.279135
 C         1.514474         0.029613         0.037325
 C         2.105824        -1.008446        -1.063560
 C         3.289192        -1.361838        -0.023235
 O         3.753162        -2.664306         0.241832
 C         3.786968         0.076018         0.405213
 O         3.460983         1.115555        -0.508891
 C         2.075852         1.487104        -0.256346
 C         2.602452        -0.475612         1.068254
 H        -0.275146         0.471107         1.075563
 H        -0.517811         0.289311        -0.588803
 H        -0.238463        -1.162901         0.498619
 H         1.503448        -1.854055        -1.255271
 H         2.453839        -0.590468        -2.056138
 H         4.536615        -2.869626        -0.366310
 H         4.772766         0.245258         1.022201
 H         1.889388         2.261456         0.534163
 H         1.779497         1.990668        -1.132223
 H         2.446555        -0.646302         2.139637
