19
Iteration:  4447
 C         0.025482         0.014446         0.440221
 C         1.499244         0.020138         0.069446
 C         1.942543        -1.081543        -0.967714
 C         3.149632        -1.305281        -0.050100
 O         3.963500        -2.486910         0.041800
 C         3.775659        -0.015108         0.387689
 O         3.561197         1.076657        -0.436765
 C         2.116467         1.289278        -0.445177
 C         2.553259        -0.439173         1.077281
 H        -0.188785         0.694164         1.373357
 H        -0.682463         0.116018        -0.312537
 H        -0.191893        -0.953432         0.794945
 H         1.248558        -1.853276        -1.005341
 H         2.176966        -0.688423        -1.994381
 H         4.725626        -2.293051         0.597035
 H         4.743660        -0.121850         0.925311
 H         2.059068         2.126651         0.087241
 H         1.774760         1.585902        -1.499485
 H         2.328305        -0.650943         2.162722
