19
Iteration:   511
 C        -0.015040         0.055740         0.326562
 C         1.478271        -0.050666        -0.021430
 C         2.217073        -1.119925        -0.966208
 C         3.299743        -1.371880         0.001435
 O         3.693908        -2.666021         0.011441
 C         3.823562         0.048138         0.421169
 O         3.527574         1.244408        -0.353150
 C         2.067376         1.384059        -0.398958
 C         2.549532        -0.478813         1.104439
 H        -0.188639         0.881567         1.111363
 H        -0.574887         0.287922        -0.703491
 H        -0.301769        -0.873374         0.663435
 H         1.647930        -1.969449        -1.202626
 H         2.699236        -0.797937        -1.971626
 H         4.492594        -2.805795         0.587878
 H         4.768278         0.084552         0.961836
 H         1.690301         2.091642         0.450142
 H         1.845709         1.814102        -1.342549
 H         2.459368        -0.379279         2.261066
