19
Iteration:  4943
 C         0.075645         0.014910         0.330619
 C         1.513218        -0.037836         0.064385
 C         2.036830        -1.079869        -1.052065
 C         3.231712        -1.329774        -0.097822
 O         3.923454        -2.495167         0.170312
 C         3.797027        -0.026383         0.376967
 O         3.490360         1.197597        -0.445369
 C         2.054465         1.350273        -0.307716
 C         2.620923        -0.532344         1.078411
 H        -0.072797         1.027347         0.740597
 H        -0.456634         0.139091        -0.702170
 H        -0.371022        -0.986243         0.960730
 H         1.270079        -1.955210        -1.144542
 H         2.290503        -0.497019        -1.961966
 H         3.263625        -3.100914         0.397891
 H         4.672141         0.058225         1.026433
 H         1.689887         2.110216         0.519051
 H         1.812350         1.581381        -1.291841
 H         2.467786        -0.728801         2.097741
