19
Iteration:  3858charge 0 multiplicity 1
 C         0.071817        -0.188295         0.384812
 C         1.529925         0.022534         0.068862
 C         2.072653        -0.995852        -1.000644
 C         3.170373        -1.291167         0.022714
 O         3.798487        -2.569901         0.068907
 C         3.812893         0.057542         0.331048
 O         3.512904         1.105304        -0.471385
 C         2.135190         1.431231        -0.406690
 C         2.589315        -0.415786         1.100454
 H        -0.251273         0.536098         1.213397
 H        -0.626491         0.013672        -0.513139
 H        -0.090231        -1.192899         0.788109
 H         1.394393        -1.888731        -0.971528
 H         2.425935        -0.599116        -1.877313
 H         3.784313        -3.013271         0.987482
 H         4.759957         0.118127         0.791537
 H         1.908002         2.241419         0.255502
 H         1.771895         1.588507        -1.467229
 H         2.491459        -0.617321         2.173429
