19
Iteration:  3294charge 0 multiplicity 1
 C         0.025068         0.052599         0.394285
 C         1.533430        -0.054560         0.019148
 C         2.042194        -1.065844        -0.972350
 C         3.296912        -1.290267        -0.058709
 O         3.956718        -2.482608         0.142653
 C         3.778051        -0.006959         0.400626
 O         3.470547         1.092204        -0.494527
 C         2.092518         1.328197        -0.411481
 C         2.551846        -0.488597         1.102167
 H        -0.166374         0.866842         1.250069
 H        -0.651098         0.305656        -0.376367
 H        -0.331030        -1.029547         0.601767
 H         1.228756        -1.933058        -1.156872
 H         2.173603        -0.557814        -2.003430
 H         3.406028        -3.150251         0.617302
 H         4.821340         0.138320         0.812205
 H         1.888867         2.262029         0.323062
 H         1.654278         1.633446        -1.320112
 H         2.444820        -0.791366         2.149566
