19
Iteration:  4937charge 0 multiplicity 1
 C         0.073370        -0.000982         0.304536
 C         1.541378        -0.030265         0.105734
 C         2.028107        -1.080227        -1.046325
 C         3.233563        -1.305143        -0.082262
 O         3.916943        -2.456621         0.171738
 C         3.817608        -0.059068         0.390200
 O         3.504759         1.209121        -0.476577
 C         2.033680         1.360773        -0.315840
 C         2.577715        -0.577691         1.082226
 H        -0.245515         0.935737         0.838576
 H        -0.356886         0.139118        -0.636854
 H        -0.418965        -0.698623         0.780554
 H         1.332457        -1.846873        -1.055144
 H         2.304541        -0.535792        -1.943967
 H         3.280403        -3.181328         0.449157
 H         4.819986        -0.087823         0.884772
 H         1.695834         1.999313         0.446601
 H         1.678941         1.707417        -1.371726
 H         2.640636        -0.963237         2.180647
