19
Iteration:  3601charge 0 multiplicity 1
 C        -0.010871        -0.068479         0.273689
 C         1.485535         0.010673         0.098026
 C         1.962042        -1.164020        -0.872796
 C         3.199513        -1.360717        -0.034824
 O         3.949598        -2.488239         0.101008
 C         3.818638         0.006707         0.355991
 O         3.592261         1.186317        -0.454476
 C         2.129096         1.406586        -0.390771
 C         2.596005        -0.391713         1.076690
 H        -0.396267         0.393550         1.269652
 H        -0.523317         0.338584        -0.530334
 H        -0.322960        -1.131588         0.410742
 H         1.284546        -1.946737        -0.715875
 H         2.250071        -0.932440        -1.902694
 H         3.353637        -3.279736         0.045755
 H         4.883148        -0.012026         0.792291
 H         1.915946         1.984480         0.478668
 H         1.638345         1.760057        -1.411276
 H         2.236026        -0.411001         2.100422
