19
Iteration:  2892
 C         0.047109        -0.009410         0.310790
 C         1.514986        -0.042582         0.052511
 C         2.000862        -1.192901        -0.835816
 C         3.253630        -1.361532         0.006769
 O         3.937733        -2.540435         0.023168
 C         3.770180         0.077920         0.387085
 O         3.499290         1.193065        -0.465151
 C         2.109687         1.399496        -0.434476
 C         2.576242        -0.396735         1.168401
 H        -0.352709         0.669653         1.130573
 H        -0.397343         0.424288        -0.642999
 H        -0.308594        -1.052445         0.545195
 H         1.317577        -2.080801        -0.931930
 H         2.284852        -0.865880        -1.887566
 H         3.502860        -3.354455        -0.081926
 H         4.799261         0.170628         0.872692
 H         1.781535         2.133901         0.290882
 H         1.787257         1.552401        -1.455844
 H         2.463510        -0.532403         2.324739
