19
Iteration:  4697
 C         0.093953         0.025832         0.377166
 C         1.536890        -0.040621         0.006395
 C         1.913443        -1.129813        -0.992750
 C         3.197520        -1.300429        -0.067210
 O         3.986216        -2.533955         0.125451
 C         3.742270        -0.000948         0.411043
 O         3.548458         1.253519        -0.264615
 C         2.116980         1.305615        -0.509082
 C         2.522427        -0.490500         1.101610
 H        -0.192430         0.784391         1.249302
 H        -0.474625         0.190440        -0.527370
 H        -0.290471        -0.888758         0.678815
 H         1.242889        -1.896121        -0.932248
 H         1.925293        -0.756617        -2.048719
 H         4.052556        -3.057850        -0.742362
 H         4.698805         0.046639         0.930660
 H         1.775344         2.145018         0.083103
 H         1.949676         1.542975        -1.525992
 H         2.419141        -0.855081         2.101450
