19
Iteration:  1843
 C         0.095104        -0.123804         0.242987
 C         1.553200         0.089360         0.097316
 C         2.134196        -1.036520        -1.039209
 C         3.193091        -1.275544        -0.004369
 O         3.759380        -2.602638         0.101415
 C         3.818404         0.056976         0.443548
 O         3.452827         1.052258        -0.566067
 C         2.088202         1.407014        -0.275321
 C         2.564399        -0.437842         1.138894
 H        -0.296601         0.326435         1.079834
 H        -0.551873         0.250617        -0.651216
 H         0.031616        -1.237222         0.375094
 H         1.533430        -1.854410        -1.066521
 H         2.431350        -0.681533        -2.080177
 H         4.368741        -2.631685         0.856902
 H         4.862768         0.145648         0.810865
 H         2.000544         2.104391         0.587972
 H         1.623731         1.965521        -1.034116
 H         2.370859        -0.547806         2.257702
