19
Iteration:  3272charge 0 multiplicity 1
 C         0.092998        -0.181446         0.425751
 C         1.572783         0.020077         0.025217
 C         2.180188        -1.039792        -1.025548
 C         3.157977        -1.369605         0.023872
 O         3.777952        -2.603868         0.180840
 C         3.807040         0.092199         0.339027
 O         3.505517         1.185275        -0.539139
 C         2.029393         1.443132        -0.340178
 C         2.604339        -0.433484         1.015689
 H        -0.093024         0.699705         1.209261
 H        -0.551728         0.081704        -0.378572
 H        -0.209762        -1.263857         0.696285
 H         1.364264        -1.884499        -1.285333
 H         2.573303        -0.632968        -2.030550
 H         3.416696        -3.197326         0.846219
 H         4.863122         0.076401         0.762664
 H         1.719302         2.310887         0.446987
 H         1.575120         1.737512        -1.243252
 H         2.608518        -0.409249         2.092914
