19
Iteration:   556
 C        -0.025259        -0.077770         0.280226
 C         1.519500         0.128501        -0.000334
 C         2.021153        -1.021876        -1.002016
 C         3.083845        -1.413918        -0.001144
 O         3.933763        -2.518305         0.134069
 C         3.699089        -0.082501         0.365823
 O         3.606151         1.053528        -0.406051
 C         2.235270         1.462684        -0.338433
 C         2.458424        -0.472125         1.099857
 H        -0.289026         0.385526         1.326343
 H        -0.622083         0.371462        -0.615457
 H        -0.110717        -1.097844         0.335035
 H         1.303832        -1.816202        -1.178550
 H         2.354108        -0.613219        -2.031865
 H         4.897413        -2.209506         0.231837
 H         4.640824        -0.155352         0.982256
 H         2.174525         2.240413         0.496743
 H         1.810391         1.842586        -1.298879
 H         2.430241        -0.600113         2.212224
