19
Iteration:  2881
 C         0.008021        -0.054994         0.234740
 C         1.551607        -0.000966         0.102154
 C         2.023462        -1.113023        -0.902670
 C         3.216529        -1.309151         0.045151
 O         3.951751        -2.563202         0.104007
 C         3.814082         0.046042         0.340953
 O         3.510703         1.145826        -0.546329
 C         2.082922         1.377339        -0.343719
 C         2.590736        -0.393725         1.145704
 H        -0.261747         0.464939         1.199861
 H        -0.649094         0.226838        -0.619929
 H        -0.275939        -1.136461         0.399867
 H         1.319263        -1.949760        -0.676595
 H         2.047253        -0.877016        -1.999022
 H         3.257589        -3.116314        -0.298739
 H         4.780877         0.205860         0.909134
 H         1.936441         2.052044         0.517878
 H         1.657359         1.922499        -1.162227
 H         2.487799        -0.537222         2.291618
