19
Iteration:   289
 C         0.036301         0.038487         0.271829
 C         1.495229         0.000349         0.069705
 C         2.000781        -1.070834        -1.029120
 C         3.152478        -1.298541        -0.060226
 O         3.843079        -2.538539         0.107739
 C         3.833571        -0.047242         0.455826
 O         3.564983         1.152825        -0.365263
 C         2.181630         1.368682        -0.380515
 C         2.507364        -0.520873         1.101381
 H        -0.298718         0.656778         1.059994
 H        -0.475046         0.248085        -0.665531
 H        -0.214490        -1.081783         0.551264
 H         1.377591        -2.048952        -1.018792
 H         2.199868        -0.745600        -2.020567
 H         4.760557        -2.257551        -0.085489
 H         4.847828        -0.105130         0.933027
 H         1.803866         2.079359         0.361695
 H         1.871754         1.631433        -1.371444
 H         2.243335        -0.652726         2.189303
