19
Iteration:  3254
 C         0.104021        -0.319204         0.423014
 C         1.517375         0.055850        -0.023996
 C         2.067139        -1.039070        -1.024246
 C         3.170805        -1.337342         0.011178
 O         3.726573        -2.680330         0.191641
 C         3.843200         0.072194         0.260583
 O         3.522455         1.287967        -0.510622
 C         2.147244         1.456306        -0.386785
 C         2.632150        -0.347488         1.108254
 H        -0.246458         0.287540         1.285516
 H        -0.626823        -0.270755        -0.396965
 H         0.255043        -1.345395         0.690596
 H         1.473818        -1.903604        -1.283008
 H         2.471476        -0.689306        -1.901233
 H         3.239829        -2.875096         1.015322
 H         4.805443         0.121656         0.760680
 H         1.873145         1.980779         0.512142
 H         1.822577         2.075837        -1.258195
 H         2.300971        -0.400861         2.209545
