19
Iteration:  2259
 C         0.044909        -0.120413         0.298124
 C         1.513321         0.021686         0.038117
 C         2.027345        -0.923559        -1.163731
 C         3.197962        -1.381468        -0.126430
 O         3.912178        -2.465628         0.363370
 C         3.752246         0.022066         0.457632
 O         3.523766         1.108839        -0.487719
 C         2.143682         1.422791        -0.240825
 C         2.483614        -0.613940         0.987603
 H        -0.050194         0.526926         1.065688
 H        -0.722383         0.126451        -0.601237
 H        -0.175792        -1.173007         0.709826
 H         1.428746        -1.660017        -1.589811
 H         2.529778        -0.314336        -2.052764
 H         4.242749        -3.161551        -0.212122
 H         4.703519        -0.108730         1.008237
 H         2.040402         2.139392         0.602919
 H         1.804690         2.120395        -1.008241
 H         2.400032        -0.719964         2.022742
