19
Iteration:  1267
 C        -0.001762        -0.164835         0.276382
 C         1.536760         0.043505         0.001585
 C         2.066058        -0.914971        -1.120930
 C         3.195850        -1.359166        -0.125466
 O         3.805403        -2.524043         0.354996
 C         3.777159        -0.038135         0.347453
 O         3.575688         1.131646        -0.444431
 C         2.145032         1.500393        -0.187006
 C         2.540332        -0.525046         1.008287
 H        -0.290704         0.388505         1.153286
 H        -0.561326         0.098083        -0.642237
 H        -0.175775        -1.286077         0.610053
 H         1.258796        -1.752530        -1.331967
 H         2.330744        -0.504394        -2.111633
 H         4.362240        -3.014568        -0.314476
 H         4.758226        -0.105395         0.879777
 H         2.138541         2.142181         0.708564
 H         1.681598         2.049046        -1.007031
 H         2.421779        -1.039454         2.044672
