19
Iteration:  3974
 C         0.046373        -0.084230         0.419639
 C         1.534568         0.046279         0.022864
 C         1.945568        -1.141266        -0.904573
 C         3.140094        -1.393502        -0.030555
 O         3.976191        -2.460079         0.049249
 C         3.773136         0.023333         0.393218
 O         3.581802         1.180615        -0.382304
 C         2.149625         1.370861        -0.527636
 C         2.554825        -0.434546         1.074138
 H        -0.300663         0.563365         1.355170
 H        -0.684920         0.227174        -0.320784
 H        -0.084542        -1.152629         0.820336
 H         1.213907        -1.887064        -0.883452
 H         2.271343        -0.721968        -1.936173
 H         3.382817        -3.212602         0.250770
 H         4.724437        -0.042940         0.833135
 H         1.795162         2.197886         0.220986
 H         1.846696         1.481602        -1.539697
 H         2.325047        -0.425251         2.115043
