19
Iteration:  3627charge 0 multiplicity 1
 C         0.072086        -0.138947         0.318600
 C         1.524811         0.045684         0.116717
 C         2.091899        -0.977843        -1.036409
 C         3.192889        -1.353604         0.018747
 O         3.865475        -2.517853         0.214053
 C         3.871325        -0.044851         0.358099
 O         3.455788         1.119742        -0.569303
 C         2.057096         1.458766        -0.390668
 C         2.628346        -0.486261         1.134372
 H        -0.196455         0.241492         1.350868
 H        -0.589191         0.351862        -0.449190
 H        -0.201250        -1.140445         0.452029
 H         1.256461        -1.681423        -1.344640
 H         2.594876        -0.470567        -1.832536
 H         3.146709        -3.220935         0.089008
 H         4.785821         0.076579         0.809178
 H         1.845218         2.184218         0.428209
 H         1.612854         1.696803        -1.324883
 H         2.485489        -0.509118         2.227307
