19
Iteration:  3028
 C         0.005374        -0.162875         0.259944
 C         1.526214         0.027559         0.073663
 C         2.045803        -1.054170        -0.925063
 C         3.192505        -1.301761         0.031154
 O         3.925685        -2.482692         0.097037
 C         3.798798        -0.000368         0.399730
 O         3.470130         1.066121        -0.588938
 C         2.163153         1.432071        -0.281018
 C         2.546497        -0.363592         1.102781
 H        -0.307244         0.250551         1.232708
 H        -0.623265         0.296286        -0.666957
 H        -0.131787        -1.202659         0.516636
 H         1.316836        -1.812946        -1.068922
 H         2.497876        -0.651275        -1.933519
 H         3.359610        -3.239096         0.353236
 H         4.808577        -0.196857         0.854547
 H         2.147038         2.092932         0.610830
 H         1.800095         1.852211        -1.228390
 H         2.597266        -0.448493         2.215394
