19
Iteration:  2743
 C        -0.016002         0.258412         0.318655
 C         1.417593        -0.124755         0.080965
 C         1.839998        -1.270311        -0.809099
 C         3.143510        -1.361808         0.027453
 O         4.241517        -2.329750        -0.143854
 C         3.763273         0.012100         0.439950
 O         3.569479         1.134633        -0.322794
 C         2.131702         1.232558        -0.518275
 C         2.477676        -0.526278         1.136367
 H        -0.085685         1.054076         0.966617
 H        -0.466220         0.596241        -0.710926
 H        -0.625926        -0.551267         0.628310
 H         1.161397        -2.043701        -0.592194
 H         1.771340        -1.055553        -1.924265
 H         4.049288        -3.154510         0.323833
 H         4.772059        -0.084251         0.922528
 H         1.744682         2.105545         0.021883
 H         2.120517         1.520739        -1.611844
 H         2.636677        -0.708490         2.284121
