19
Iteration:  3082charge 0 multiplicity 1
 C         0.077315         0.012134         0.512576
 C         1.553929        -0.076785        -0.056657
 C         2.043203        -1.074908        -1.065664
 C         3.235271        -1.297366        -0.064507
 O         3.881216        -2.507480         0.157953
 C         3.813828         0.004372         0.372681
 O         3.513411         1.261075        -0.371545
 C         2.064979         1.325044        -0.422151
 C         2.537676        -0.535095         1.001510
 H        -0.074458         0.894068         1.104616
 H        -0.707395        -0.102855        -0.451202
 H        -0.137945        -0.948690         0.970784
 H         1.596634        -2.046455        -1.032968
 H         2.321466        -0.811701        -2.199042
 H         3.238456        -3.000650         0.740828
 H         4.729093        -0.151539         1.015329
 H         1.643301         2.135667         0.252832
 H         1.876715         1.696617        -1.465418
 H         2.427727        -0.809720         2.100764
