19
Iteration:  4590
 C         0.079131        -0.074355         0.357271
 C         1.497166         0.001178         0.077601
 C         2.061523        -1.000941        -1.003100
 C         3.253878        -1.313416        -0.052508
 O         3.885976        -2.586719         0.160866
 C         3.781295         0.013792         0.329476
 O         3.501970         1.175509        -0.445619
 C         2.059539         1.350547        -0.373984
 C         2.629282        -0.466558         1.056762
 H        -0.203446         0.531338         1.259045
 H        -0.609599         0.266924        -0.410763
 H        -0.168182        -1.094313         0.599155
 H         1.375533        -1.827977        -1.109714
 H         2.309726        -0.483805        -1.989994
 H         3.116769        -3.173882         0.458460
 H         4.742347         0.070871         0.864380
 H         1.781020         2.163526         0.419859
 H         1.626365         1.802959        -1.384020
 H         2.624736        -0.606270         2.104480
