19
Iteration:  2452
 C         0.006080        -0.220528         0.276794
 C         1.467804         0.017042         0.022277
 C         2.045601        -1.025567        -1.043861
 C         3.216646        -1.306001         0.001259
 O         3.773375        -2.603960         0.162795
 C         3.838043         0.046441         0.389738
 O         3.539846         1.118507        -0.575722
 C         2.189788         1.457675        -0.224069
 C         2.565266        -0.380427         1.095420
 H        -0.365906         0.307744         1.274345
 H        -0.514580         0.173615        -0.496988
 H        -0.185893        -1.295526         0.382551
 H         1.389469        -1.939303        -1.228816
 H         2.234407        -0.544825        -1.961858
 H         4.646475        -2.437319         0.663173
 H         4.709830         0.225901         0.947155
 H         2.092594         2.011593         0.718857
 H         1.790078         1.944135        -1.098424
 H         2.373243        -0.552235         2.143536
