19
Iteration:  3561
 C         0.006584         0.253522         0.423395
 C         1.501159        -0.047877         0.009309
 C         1.994815        -1.236840        -0.923888
 C         3.218062        -1.351684         0.006146
 O         4.138754        -2.391815        -0.045163
 C         3.771933        -0.069533         0.459862
 O         3.510149         1.174370        -0.328347
 C         2.073487         1.234340        -0.559229
 C         2.464436        -0.536295         1.125530
 H        -0.147595         1.311751         0.944105
 H        -0.615833         0.295504        -0.532448
 H        -0.472124        -0.340522         1.161223
 H         1.242016        -2.130963        -1.005121
 H         2.170315        -0.819794        -1.935811
 H         3.746571        -3.180349         0.368820
 H         4.700320        -0.135276         0.981383
 H         1.657891         2.180664        -0.081361
 H         1.971595         1.235627        -1.641635
 H         2.148114        -0.689812         2.177839
