19
Iteration:   786charge 0 multiplicity 1
 C         0.130773         0.058276         0.313274
 C         1.554071        -0.026534        -0.032549
 C         2.021046        -1.089165        -0.979305
 C         3.146411        -1.372854         0.017742
 O         3.920870        -2.496366        -0.052206
 C         3.677424        -0.058730         0.474027
 O         3.554356         1.174251        -0.252033
 C         2.144259         1.319514        -0.509129
 C         2.468627        -0.525365         1.135581
 H        -0.127719         1.019358         0.954222
 H        -0.483127         0.292045        -0.551488
 H        -0.249670        -0.809342         0.883693
 H         1.205872        -1.876208        -0.993642
 H         2.309487        -0.837280        -1.981763
 H         4.558042        -2.332614         0.719808
 H         4.596147        -0.139476         1.017546
 H         1.772041         2.267384         0.094576
 H         1.966478         1.418103        -1.572505
 H         2.274339        -0.322776         2.214609
