19
Iteration:   942
 C        -0.000222         0.080275         0.253435
 C         1.505134         0.093691         0.013426
 C         2.029451        -1.094971        -0.966477
 C         3.196504        -1.397987        -0.022199
 O         3.898893        -2.604235         0.014025
 C         3.776051        -0.093846         0.418795
 O         3.560510         1.160425        -0.310607
 C         2.102016         1.426828        -0.363395
 C         2.551173        -0.517210         1.091492
 H        -0.418057         0.744901         1.127502
 H        -0.490474         0.294075        -0.706486
 H        -0.353173        -0.863679         0.766972
 H         1.289196        -1.938483        -1.082184
 H         2.270839        -0.756152        -1.994707
 H         4.691070        -2.504243         0.503289
 H         4.737537         0.026278         0.946321
 H         1.707744         2.258605         0.273875
 H         1.933011         1.691849        -1.358676
 H         2.496895        -0.625839         2.122846
