19
Iteration:  4575
 C         0.084629        -0.128671         0.459054
 C         1.566539         0.024968        -0.011438
 C         2.110001        -1.052506        -1.019268
 C         3.271481        -1.264096        -0.080347
 O         3.782620        -2.511385         0.180799
 C         3.845777         0.065242         0.429679
 O         3.479609         1.141254        -0.506041
 C         2.059678         1.413397        -0.359701
 C         2.548968        -0.540354         1.032450
 H        -0.139806         0.542962         1.328827
 H        -0.580009         0.330019        -0.276698
 H        -0.145789        -1.136364         0.758442
 H         1.527806        -1.967679        -0.935130
 H         2.405313        -0.873975        -2.111370
 H         3.137503        -3.256643        -0.051748
 H         4.857330         0.249435         0.896106
 H         1.898840         2.227954         0.363692
 H         1.852385         1.693030        -1.296314
 H         2.284681        -0.903569         2.075768
