19
Iteration:  4572
 C         0.097049        -0.127452         0.475292
 C         1.552148         0.025677         0.002069
 C         2.120568        -1.056183        -1.055031
 C         3.258969        -1.251048        -0.075558
 O         3.774962        -2.505384         0.178025
 C         3.855203         0.057727         0.448371
 O         3.481322         1.148423        -0.514217
 C         2.079857         1.405161        -0.356582
 C         2.545534        -0.539957         1.035657
 H        -0.135192         0.524884         1.289867
 H        -0.635906         0.357751        -0.264821
 H        -0.181640        -1.249994         0.817455
 H         1.501319        -2.053695        -0.869763
 H         2.444874        -0.988700        -2.062135
 H         3.192146        -3.250808        -0.118909
 H         4.786512         0.293191         0.876281
 H         1.902817         2.174143         0.336539
 H         1.850654         1.812085        -1.395825
 H         2.201828        -0.874448         2.033242
