19
Iteration:  4344charge 0 multiplicity 1
 C         0.039876         0.018572         0.423689
 C         1.513365         0.055444         0.021683
 C         1.986755        -1.125735        -0.905118
 C         3.220990        -1.333483        -0.070194
 O         3.962859        -2.505053         0.009845
 C         3.715064        -0.022000         0.420899
 O         3.559150         1.065104        -0.465681
 C         2.065335         1.368980        -0.405167
 C         2.529153        -0.425632         1.113180
 H        -0.280756         0.864449         1.051895
 H        -0.622176         0.228924        -0.520041
 H        -0.204543        -0.990721         0.975850
 H         1.127364        -1.940876        -0.834517
 H         2.208391        -0.988859        -1.950217
 H         4.825157        -2.302592         0.523299
 H         4.688597        -0.097176         0.986626
 H         1.896046         2.230415         0.192215
 H         1.943925         1.588913        -1.445155
 H         2.356123        -0.795536         2.074535
