19
Iteration:  4584charge 0 multiplicity 1
 C         0.081552        -0.065838         0.399215
 C         1.532133         0.008697         0.007229
 C         2.100163        -1.014787        -0.970808
 C         3.283679        -1.310476        -0.061163
 O         3.848408        -2.561046         0.177381
 C         3.796652         0.065732         0.353891
 O         3.496709         1.134345        -0.456695
 C         2.041410         1.405778        -0.357662
 C         2.593226        -0.493429         1.031814
 H        -0.047368         0.460640         1.327569
 H        -0.601546         0.148336        -0.483545
 H        -0.178932        -1.198964         0.605249
 H         1.354704        -1.885283        -1.152307
 H         2.148510        -0.507853        -1.912441
 H         3.001604        -3.103078         0.233859
 H         4.731842        -0.004987         0.869114
 H         1.813895         2.152604         0.348096
 H         1.609287         1.634767        -1.346087
 H         2.644743        -0.818907         2.103973
