19
Iteration:  1176charge 0 multiplicity 1
 C        -0.016513         0.194414         0.403556
 C         1.475651        -0.040180        -0.004749
 C         1.941048        -1.218070        -1.016977
 C         3.174419        -1.349510        -0.080583
 O         3.992225        -2.400135         0.033152
 C         3.729390        -0.057806         0.480626
 O         3.588977         1.143979        -0.191697
 C         2.242305         1.292790        -0.512934
 C         2.442736        -0.594899         1.044175
 H        -0.146704         1.036211         1.117844
 H        -0.678451         0.457128        -0.558544
 H        -0.329203        -0.681158         1.024824
 H         1.342764        -2.084902        -1.124876
 H         2.119071        -0.851802        -2.165036
 H         4.916830        -1.986523         0.116169
 H         4.709758        -0.165954         0.927220
 H         1.852541         2.280348        -0.097728
 H         2.058140         1.337229        -1.550999
 H         2.124973        -0.774113         2.052932
