19
Iteration:  1968
 C         0.085168         0.249180         0.232208
 C         1.504391        -0.087950         0.023631
 C         1.907532        -1.285557        -0.850111
 C         3.182781        -1.340781         0.031995
 O         4.113552        -2.418373        -0.156304
 C         3.666812        -0.013248         0.571562
 O         3.511378         1.113526        -0.270123
 C         2.150042         1.282995        -0.543629
 C         2.463950        -0.513671         1.150588
 H        -0.070592         0.940383         1.159019
 H        -0.267901         0.704434        -0.650691
 H        -0.607549        -0.604369         0.494452
 H         1.236277        -2.099241        -0.403805
 H         1.814326        -1.242530        -1.880920
 H         4.922126        -2.053056        -0.446265
 H         4.619428         0.138569         1.234633
 H         1.899043         2.114614         0.163689
 H         1.839585         1.355735        -1.506374
 H         2.228812        -0.680551         2.218110
