19
Iteration:  2472charge 0 multiplicity 1
 C         0.062841        -0.144717         0.405516
 C         1.485078         0.058486        -0.079487
 C         2.148112        -1.052407        -1.051878
 C         3.184163        -1.352960         0.000823
 O         3.837671        -2.518321         0.146509
 C         3.750153        -0.022505         0.329975
 O         3.572540         1.161404        -0.428774
 C         2.098583         1.436841        -0.332977
 C         2.511881        -0.492400         1.021797
 H        -0.229220         0.614690         1.317299
 H        -0.663969         0.018426        -0.356573
 H        -0.038140        -1.150590         0.752324
 H         1.296090        -1.894457        -1.097258
 H         2.470663        -0.774012        -2.066029
 H         4.002173        -2.601019         1.113302
 H         4.751592        -0.011550         0.766239
 H         2.046991         2.059699         0.606025
 H         1.696560         1.991854        -1.155582
 H         2.351001        -0.513306         2.056429
