19
Iteration:  3202
 C         0.013437         0.008521         0.456689
 C         1.472675        -0.031735        -0.001785
 C         2.075120        -1.051229        -0.991408
 C         3.214220        -1.393695         0.026493
 O         3.978568        -2.509174         0.108502
 C         3.782849         0.045109         0.352736
 O         3.534790         1.159064        -0.448168
 C         2.047242         1.324138        -0.407616
 C         2.570795        -0.474976         1.041735
 H        -0.060344         0.781025         1.102457
 H        -0.761554         0.162445        -0.437195
 H        -0.190265        -0.952108         0.854339
 H         1.350147        -1.768716        -1.189165
 H         2.399150        -0.704080        -2.052880
 H         3.492623        -3.151148         0.623064
 H         4.723544        -0.016270         0.886935
 H         1.790103         2.188586         0.230517
 H         1.693409         1.623754        -1.497066
 H         2.377911        -0.481675         2.144773
