19
Iteration:  3122
 C         0.015579         0.090301         0.320673
 C         1.472784         0.028913         0.083920
 C         1.949604        -1.212246        -0.792614
 C         3.201966        -1.355914         0.038448
 O         4.077266        -2.450753        -0.173941
 C         3.777696        -0.092088         0.457092
 O         3.517512         1.233956        -0.286910
 C         2.153318         1.271250        -0.599443
 C         2.501038        -0.420997         1.160914
 H        -0.254754         0.698755         1.163180
 H        -0.501777         0.467651        -0.552722
 H        -0.365248        -0.911228         0.559180
 H         1.280666        -2.022098        -0.529081
 H         1.968516        -1.015887        -1.885423
 H         3.759044        -3.255004         0.227035
 H         4.772675        -0.032865         0.970781
 H         1.722798         2.180225        -0.190739
 H         1.894837         1.231611        -1.709696
 H         2.489042        -0.382317         2.247233
