19
Iteration:  1084
 C         0.102743        -0.107877         0.263703
 C         1.543559         0.100498        -0.011418
 C         2.159145        -0.960040        -1.137604
 C         3.145978        -1.378893        -0.015824
 O         3.838756        -2.601543         0.249520
 C         3.795994        -0.075380         0.432369
 O         3.527963         1.150175        -0.442753
 C         2.087264         1.491813        -0.255397
 C         2.494881        -0.510182         1.081871
 H        -0.379256         0.545106         1.107584
 H        -0.515114         0.130142        -0.546766
 H        -0.062565        -1.124384         0.637499
 H         1.378431        -1.807951        -1.304569
 H         2.319566        -0.445975        -2.088163
 H         3.863201        -3.081268        -0.549620
 H         4.713112        -0.072183         1.010703
 H         1.976677         2.215999         0.611208
 H         1.707615         2.012235        -1.210907
 H         2.314859        -0.677041         2.094154
