19
Iteration:  1442charge 0 multiplicity 1
 C         0.097147        -0.236959         0.326525
 C         1.522665         0.123304         0.025885
 C         2.018853        -1.033833        -1.091616
 C         3.196074        -1.349747        -0.065792
 O         3.746890        -2.597214         0.236776
 C         3.779476        -0.006423         0.419476
 O         3.578371         1.166377        -0.424739
 C         2.157745         1.483589        -0.279698
 C         2.533228        -0.415314         0.990856
 H        -0.263150         0.403034         1.154707
 H        -0.459582         0.000904        -0.576426
 H        -0.009755        -1.370322         0.388482
 H         1.236782        -1.829273        -1.057383
 H         2.240390        -0.805416        -2.143540
 H         4.709649        -2.601945        -0.105196
 H         4.635647        -0.119755         1.001617
 H         1.981224         2.307329         0.603062
 H         1.842557         1.909144        -1.203884
 H         2.351281        -0.580661         1.998085
