19
Iteration:  1174
 C        -0.032116         0.183379         0.397058
 C         1.476461        -0.027120        -0.003535
 C         1.942481        -1.236621        -1.022391
 C         3.158210        -1.359768        -0.087279
 O         4.001409        -2.401605         0.037215
 C         3.720078        -0.042875         0.470270
 O         3.601977         1.146124        -0.181385
 C         2.245508         1.276763        -0.498551
 C         2.460118        -0.578497         1.031775
 H        -0.140420         1.054073         1.184431
 H        -0.667445         0.442733        -0.558284
 H        -0.304073        -0.644958         0.988135
 H         1.244882        -2.058811        -1.137877
 H         2.105820        -0.870369        -2.154701
 H         4.852546        -1.958305         0.130463
 H         4.704789        -0.182499         0.935267
 H         1.855879         2.303111        -0.093603
 H         2.045931         1.395669        -1.593147
 H         2.137689        -0.788157         2.119974
