19
Iteration:  4774charge 0 multiplicity 1
 C        -0.087647        -0.069028         0.314138
 C         1.476893         0.073447         0.082746
 C         2.108133        -0.993074        -0.998382
 C         3.196296        -1.312424        -0.041065
 O         3.959152        -2.527695         0.025810
 C         3.805357        -0.028324         0.442192
 O         3.487986         1.092533        -0.485847
 C         2.154799         1.369428        -0.360802
 C         2.543342        -0.485530         1.173775
 H        -0.383061         0.692818         1.186559
 H        -0.553993         0.226592        -0.631840
 H        -0.225677        -1.065696         0.669591
 H         1.666825        -1.902257        -1.127859
 H         2.492710        -0.429364        -1.875826
 H         3.644842        -3.012510         0.741715
 H         4.806643        -0.112016         0.828548
 H         2.008919         2.273433         0.264277
 H         1.762832         1.604618        -1.390561
 H         2.397543        -0.773309         2.294148
