19
Iteration:  1474
 C         0.080783        -0.226474         0.302695
 C         1.570742         0.026310         0.042784
 C         2.223642        -1.008650        -1.146812
 C         3.185528        -1.283088        -0.017121
 O         3.602899        -2.608642         0.288365
 C         3.857926         0.064131         0.350128
 O         3.522905         1.234020        -0.488413
 C         2.090891         1.384401        -0.212823
 C         2.604397        -0.432137         1.063672
 H        -0.400680         0.356303         1.110785
 H        -0.419433         0.049441        -0.653463
 H        -0.148361        -1.319369         0.704695
 H         1.561468        -1.855137        -1.395368
 H         2.700159        -0.542279        -2.025330
 H         3.620655        -3.095175        -0.506717
 H         4.787982        -0.030064         0.782078
 H         1.928094         2.134014         0.585670
 H         1.677331         1.952528        -1.069144
 H         2.445174        -0.751446         2.040303
