19
Iteration:  2122charge 0 multiplicity 1
 C        -0.043846         0.178059         0.351239
 C         1.451682        -0.084585         0.048180
 C         2.046756        -1.185440        -1.015465
 C         3.251824        -1.355934        -0.052593
 O         4.013632        -2.515924         0.069807
 C         3.764556         0.011526         0.476032
 O         3.553308         1.141199        -0.384754
 C         2.088133         1.339465        -0.391923
 C         2.486624        -0.538028         1.073560
 H        -0.301151         1.046322         1.093539
 H        -0.547979         0.395693        -0.523495
 H        -0.540464        -0.679618         0.758268
 H         1.291729        -2.108529        -1.136571
 H         2.163626        -0.749968        -1.983272
 H         4.942286        -2.238960        -0.147449
 H         4.631353         0.026627         1.035936
 H         1.711312         2.122485         0.277807
 H         1.862941         1.670892        -1.367035
 H         2.306906        -0.684692         2.120460
