19
Iteration:  3752
 C         0.078724         0.164311         0.351037
 C         1.496643         0.019998         0.028557
 C         2.034020        -1.239022        -0.820202
 C         3.198734        -1.328572         0.057125
 O         4.140428        -2.411201        -0.143422
 C         3.711720        -0.021325         0.473955
 O         3.528462         1.063441        -0.368583
 C         2.112436         1.278586        -0.516993
 C         2.399218        -0.426861         1.186288
 H        -0.058012         0.834311         1.158948
 H        -0.444264         0.666090        -0.557440
 H        -0.546623        -0.821173         0.545411
 H         1.230374        -1.989616        -0.669766
 H         2.148900        -1.335033        -1.937196
 H         3.549943        -3.185154        -0.416762
 H         4.611265         0.141658         1.019093
 H         1.794208         2.160354         0.098031
 H         1.733471         1.451377        -1.435914
 H         2.052602        -0.528328         2.225614
