19
Iteration:  3669
 C         0.002798        -0.075466         0.503014
 C         1.515779         0.014521        -0.111605
 C         2.069575        -1.162616        -1.018557
 C         3.198199        -1.371579        -0.090202
 O         3.896109        -2.486860         0.115318
 C         3.806614         0.005902         0.419397
 O         3.582745         1.206563        -0.390642
 C         2.078605         1.411821        -0.399536
 C         2.527898        -0.443686         1.004785
 H        -0.129539         0.869771         1.235662
 H        -0.666627         0.040537        -0.297856
 H        -0.109952        -1.020323         0.922222
 H         1.565709        -2.105645        -0.899046
 H         2.355302        -0.801262        -1.975006
 H         3.431107        -3.141731         0.723218
 H         4.700104        -0.070283         0.928144
 H         1.894134         2.077118         0.453989
 H         1.802715         1.818723        -1.493077
 H         2.243861        -0.530392         2.066552
