19
Iteration:  1783charge 0 multiplicity 1
 C         0.107105         0.192030         0.340420
 C         1.504295        -0.037751         0.011792
 C         1.968001        -1.198304        -0.886221
 C         3.235127        -1.309345        -0.055876
 O         3.981372        -2.461884        -0.041114
 C         3.741776        -0.004242         0.491428
 O         3.478454         1.212236        -0.157241
 C         2.125769         1.220635        -0.660368
 C         2.444341        -0.581468         1.090551
 H         0.257050         1.101582         1.071340
 H        -0.502209         0.440338        -0.453948
 H        -0.353602        -0.501772         1.043141
 H         1.339667        -2.231884        -0.697007
 H         2.001965        -0.994182        -1.958610
 H         4.841720        -2.139453         0.120811
 H         4.660101        -0.074467         1.008965
 H         1.724981         2.110395        -0.235638
 H         2.072196         0.978201        -1.827607
 H         2.217484        -0.878812         2.080483
