19
Iteration:    82
 C        -0.028895         0.121519         0.302273
 C         1.449827         0.039418        -0.006067
 C         1.879231        -1.225892        -0.935873
 C         3.231042        -1.275054        -0.055954
 O         3.993074        -2.465992         0.051025
 C         3.740257        -0.068691         0.490422
 O         3.652895         1.141007        -0.253263
 C         2.202206         1.367150        -0.531327
 C         2.462815        -0.531735         1.084104
 H        -0.342923         0.709487         1.194161
 H        -0.562892         0.432339        -0.614033
 H        -0.383971        -0.961578         0.576025
 H         1.311274        -2.202429        -0.547549
 H         1.934740        -1.172237        -2.019247
 H         4.843591        -2.457823        -0.320703
 H         4.643080        -0.016278         1.101648
 H         2.001297         2.198047         0.201356
 H         1.891999         1.590119        -1.642307
 H         2.231687        -0.843588         2.095337
