19
Iteration:  4311
 C        -0.000495         0.160915         0.438902
 C         1.439170        -0.070062        -0.006350
 C         2.067407        -1.206215        -0.879118
 C         3.221796        -1.340001         0.027068
 O         3.987056        -2.509141        -0.095924
 C         3.689930         0.041384         0.484409
 O         3.598159         1.100376        -0.440561
 C         2.077222         1.275411        -0.468230
 C         2.496087        -0.412902         1.173568
 H         0.095637         1.010860         1.119330
 H        -0.691299         0.311894        -0.523480
 H        -0.530032        -0.776652         0.939374
 H         1.244736        -2.073593        -1.011165
 H         2.436907        -0.959210        -1.844192
 H         4.845311        -2.195659        -0.415944
 H         4.594765        -0.058395         1.174187
 H         1.716981         2.066510         0.158973
 H         1.856128         1.531016        -1.527787
 H         2.312093        -0.510798         2.224413
