19
Iteration:  1349
 C        -0.042888         0.159916         0.239995
 C         1.505267        -0.005128         0.051079
 C         1.837185        -1.303973        -0.853335
 C         3.117075        -1.330694        -0.119823
 O         4.022779        -2.418287        -0.088906
 C         3.746602        -0.064775         0.477298
 O         3.618733         1.256953        -0.136392
 C         2.259471         1.215553        -0.469215
 C         2.495661        -0.486409         1.161286
 H        -0.336344         0.865369         1.051040
 H        -0.550392         0.427763        -0.728841
 H        -0.398922        -0.797704         0.315545
 H         1.124823        -2.099200        -0.688827
 H         2.001611        -1.082070        -1.926558
 H         4.904065        -2.147483        -0.193897
 H         4.840257        -0.237782         0.578308
 H         1.808605         2.136848        -0.148504
 H         2.072125         1.155021        -1.692363
 H         2.388579        -0.656010         2.160039
