19
Iteration:   367charge 0 multiplicity 1
 C         0.065952        -0.052061         0.270066
 C         1.539903         0.074630        -0.005509
 C         1.981819        -1.058907        -1.020773
 C         3.179974        -1.336050        -0.164922
 O         3.834106        -2.465807         0.290997
 C         3.810549        -0.057302         0.413740
 O         3.575880         1.149882        -0.355106
 C         2.153625         1.459475        -0.305159
 C         2.541084        -0.568775         1.045711
 H        -0.546916         0.256202         1.080280
 H        -0.475545         0.078556        -0.735369
 H        -0.017676        -1.114767         0.399884
 H         1.208512        -1.859431        -1.044604
 H         2.202205        -0.828075        -2.066039
 H         4.187517        -2.877142        -0.462041
 H         4.845467        -0.087642         0.862381
 H         1.827575         2.216893         0.465221
 H         1.819252         1.887700        -1.294426
 H         2.254473        -0.948706         1.990300
