19
Iteration:  1225
 C        -0.014551         0.010488         0.247285
 C         1.489198        -0.021544        -0.014867
 C         2.130870        -1.111239        -0.972288
 C         3.210393        -1.322799         0.036063
 O         3.834848        -2.623853         0.045338
 C         3.784624        -0.007725         0.419043
 O         3.587488         1.242760        -0.305410
 C         2.081245         1.371448        -0.384910
 C         2.531069        -0.467112         1.137047
 H        -0.227374         0.774987         1.024461
 H        -0.448890         0.429627        -0.586730
 H        -0.456710        -0.948370         0.543919
 H         1.437854        -2.057659        -1.001403
 H         2.353022        -0.859307        -1.940069
 H         4.301462        -2.556959        -0.765642
 H         4.758570        -0.073553         0.951419
 H         1.799427         1.960223         0.441141
 H         1.882596         1.789030        -1.438601
 H         2.424532        -0.586887         2.286712
