19
Iteration:  1222charge 0 multiplicity 1
 C        -0.017299         0.043147         0.277589
 C         1.478203        -0.021752        -0.020142
 C         2.131365        -1.133008        -0.970836
 C         3.202431        -1.335117         0.039335
 O         3.843816        -2.635291         0.022457
 C         3.804147         0.022110         0.445995
 O         3.566901         1.236871        -0.305095
 C         2.090642         1.356290        -0.404192
 C         2.514386        -0.479279         1.153089
 H        -0.196886         0.762656         1.020116
 H        -0.363549         0.469983        -0.710606
 H        -0.481134        -0.959989         0.643762
 H         1.549589        -2.078780        -1.047979
 H         2.394072        -0.848949        -2.060398
 H         4.403235        -2.575673        -0.819421
 H         4.755526        -0.019432         0.998902
 H         1.729196         2.113675         0.359650
 H         1.949471         1.773971        -1.346540
 H         2.376322        -0.501689         2.198818
