19
Iteration:  1498charge 0 multiplicity 1
 C         0.129138        -0.071669         0.294724
 C         1.559659         0.056164        -0.020071
 C         2.131431        -0.915812        -1.028191
 C         3.262319        -1.337608         0.017475
 O         3.792076        -2.677111         0.197580
 C         3.785655         0.051776         0.394765
 O         3.463761         1.175938        -0.374462
 C         2.047808         1.371271        -0.425564
 C         2.556489        -0.533154         1.090902
 H        -0.227614         0.604195         1.182514
 H        -0.459389         0.167099        -0.550317
 H        -0.054879        -1.088868         0.784853
 H         1.385624        -1.805027        -1.183178
 H         2.403030        -0.465340        -1.938713
 H         3.510957        -3.208272        -0.565256
 H         4.735192         0.215553         0.961212
 H         1.812188         2.183484         0.392288
 H         1.785118         1.850891        -1.292713
 H         2.483168        -0.695697         2.111978
