19
Iteration:  4607charge 0 multiplicity 1
 C        -0.042753        -0.045147         0.355140
 C         1.557772         0.012886         0.048637
 C         2.036442        -1.089487        -0.986811
 C         3.122832        -1.427545         0.023334
 O         3.955726        -2.544683         0.049291
 C         3.837290         0.012398         0.301152
 O         3.526210         1.215351        -0.432014
 C         2.098857         1.400435        -0.325176
 C         2.592022        -0.441459         1.122107
 H        -0.327996         0.622392         1.195466
 H        -0.390979         0.171577        -0.677395
 H        -0.478413        -1.087620         0.489934
 H         1.250524        -1.849931        -1.233297
 H         2.342434        -0.667928        -1.956194
 H         3.740891        -3.015873         0.877154
 H         4.895395        -0.138330         0.655781
 H         1.825141         2.183376         0.330426
 H         1.677894         1.577436        -1.308433
 H         2.467304        -0.394817         2.242510
