19
Iteration:  3338
 C         0.085690         0.173984         0.283029
 C         1.496846        -0.024065         0.018584
 C         1.888024        -1.304048        -0.760428
 C         3.162272        -1.357091        -0.038854
 O         4.206992        -2.375017        -0.111126
 C         3.654152        -0.087228         0.503060
 O         3.530798         1.146842        -0.306898
 C         2.104704         1.302067        -0.534919
 C         2.493112        -0.427000         1.159839
 H         0.176112         1.086308         1.039568
 H        -0.496402         0.591464        -0.460253
 H        -0.567783        -0.656775         0.708487
 H         1.138013        -2.205615        -0.444827
 H         1.970658        -1.292200        -1.926596
 H         3.828336        -3.253830        -0.255665
 H         4.680655        -0.179507         0.799843
 H         1.726034         2.268477        -0.060022
 H         2.068630         1.495606        -1.548808
 H         2.201977        -0.326000         2.229116
