19
Iteration:  1767
 C         0.027280         0.345066         0.453360
 C         1.456332        -0.111707        -0.029327
 C         1.962815        -1.299775        -0.971296
 C         3.189010        -1.320830        -0.039897
 O         4.027582        -2.402590        -0.058765
 C         3.669042         0.039544         0.554247
 O         3.533461         1.240864        -0.157359
 C         2.213238         1.132172        -0.658770
 C         2.479684        -0.611577         1.113311
 H         0.052653         1.262274         0.960376
 H        -0.636977         0.318159        -0.526622
 H        -0.420960        -0.572690         0.984075
 H         1.431002        -2.145837        -0.854277
 H         2.112734        -1.133541        -2.065673
 H         4.881254        -2.273579        -0.476072
 H         4.652113        -0.074029         1.187074
 H         1.475380         2.033705        -0.438946
 H         2.335674         1.008707        -1.659318
 H         2.307152        -0.714041         2.252100
