19
Iteration:  3235
 C         0.164227        -0.348439         0.425102
 C         1.549382         0.055222        -0.006316
 C         2.030999        -1.033048        -1.011087
 C         3.209966        -1.313272        -0.041904
 O         3.688421        -2.515637         0.190710
 C         3.835661         0.046673         0.335313
 O         3.580326         1.173475        -0.465366
 C         2.066922         1.472967        -0.352228
 C         2.603553        -0.376581         0.988038
 H        -0.230749         0.166625         1.176319
 H        -0.567983        -0.290031        -0.507642
 H         0.196263        -1.325379         0.820017
 H         1.298922        -1.740144        -0.925505
 H         2.203593        -0.798389        -2.111801
 H         3.348771        -2.846245         1.089572
 H         4.761153        -0.017904         0.821688
 H         2.035294         2.287735         0.325445
 H         1.762583         1.701736        -1.467709
 H         2.501075        -0.504518         2.080814
