19
Iteration:  3430charge 0 multiplicity 1
 C         0.033977        -0.031082         0.448113
 C         1.452424         0.025868        -0.071706
 C         2.064547        -1.176361        -1.038536
 C         3.181834        -1.319212        -0.073685
 O         3.946252        -2.471135         0.210432
 C         3.773908         0.019227         0.371116
 O         3.513874         1.134267        -0.462637
 C         2.162270         1.431412        -0.304891
 C         2.546424        -0.471890         0.969559
 H        -0.155614         0.602574         1.289656
 H        -0.801304         0.145412        -0.326877
 H        -0.134596        -1.037100         0.668812
 H         1.422473        -2.136098        -1.224663
 H         2.452530        -0.897563        -2.029399
 H         3.409213        -3.258829         0.570780
 H         4.807011        -0.025461         0.922618
 H         1.979775         2.066744         0.631901
 H         1.865518         1.986702        -1.132168
 H         2.349416        -0.592351         2.014474
