19
Iteration:  2271
 C         0.005890        -0.102843         0.299781
 C         1.486447         0.022947        -0.023051
 C         2.084813        -0.912728        -1.070737
 C         3.168848        -1.313766        -0.053341
 O         3.961490        -2.478257         0.325306
 C         3.768005        -0.049713         0.378327
 O         3.534418         1.053651        -0.451153
 C         2.138416         1.432523        -0.248169
 C         2.501629        -0.543479         1.020270
 H        -0.462493         0.443554         1.030118
 H        -0.510071         0.249324        -0.700466
 H        -0.336384        -1.206538         0.448140
 H         1.346777        -1.628401        -1.225146
 H         2.387986        -0.356098        -2.032989
 H         4.137990        -2.856047        -0.534803
 H         4.692675         0.009261         0.815754
 H         2.088979         1.944324         0.737048
 H         1.765884         1.880945        -1.183976
 H         2.245973        -0.888736         1.988640
