19
Iteration:    51charge 0 multiplicity 1
 C         0.099141         0.158994         0.356518
 C         1.502442        -0.017196        -0.021120
 C         1.940588        -1.168667        -0.962992
 C         3.134464        -1.362835         0.006062
 O         3.946809        -2.492615         0.025649
 C         3.775395        -0.106596         0.394155
 O         3.549303         1.306213        -0.075720
 C         2.155497         1.182567        -0.620725
 C         2.482677        -0.508870         1.085259
 H        -0.030014         1.169993         0.910210
 H        -0.649783         0.261012        -0.495382
 H        -0.277758        -0.746070         0.811811
 H         1.277800        -2.065293        -0.964126
 H         2.194342        -0.966963        -2.074708
 H         4.888390        -2.174366        -0.206317
 H         4.714758        -0.086599         0.889090
 H         1.694623         2.158413        -0.299166
 H         2.093307         1.213856        -1.748558
 H         2.209185        -0.716823         2.102201
