19
Iteration:  3389charge 0 multiplicity 1
 C         0.016008         0.090945         0.364538
 C         1.528529         0.009190         0.072699
 C         1.938664        -1.207745        -0.916394
 C         3.205455        -1.330717        -0.014755
 O         4.003313        -2.436597        -0.025334
 C         3.776442        -0.012845         0.447092
 O         3.514191         1.222220        -0.229971
 C         2.148836         1.239562        -0.609109
 C         2.566590        -0.493765         1.113124
 H        -0.317144         0.892245         0.943309
 H        -0.588818         0.197161        -0.639629
 H        -0.302737        -0.844750         0.896149
 H         1.365632        -2.030723        -0.796775
 H         1.954266        -0.832807        -1.906139
 H         3.398326        -3.153656         0.068801
 H         4.871476         0.094828         0.877932
 H         1.685400         2.141836        -0.277323
 H         2.111973         1.291306        -1.796549
 H         2.520666        -0.661128         2.191029
