19
Iteration:  2808
 C         0.067074        -0.022985         0.517049
 C         1.507035        -0.026562        -0.069163
 C         2.039922        -1.165977        -1.032823
 C         3.202698        -1.271497        -0.027166
 O         3.920461        -2.537715         0.130448
 C         3.755417         0.061130         0.408550
 O         3.543780         1.233981        -0.322973
 C         2.110501         1.350421        -0.510989
 C         2.514361        -0.470875         1.083749
 H        -0.097186         0.745867         1.185791
 H        -0.638894         0.183022        -0.429633
 H        -0.201999        -0.952317         0.986198
 H         1.434327        -2.008365        -0.939154
 H         2.440109        -1.114485        -2.148029
 H         3.439941        -3.183091        -0.494637
 H         4.802206        -0.005530         0.830028
 H         1.631711         2.234387         0.061158
 H         1.866661         1.410699        -1.630482
 H         2.671206        -0.692463         2.191511
