19
Iteration:  2009charge 0 multiplicity 1
 C        -0.001475         0.000544         0.333902
 C         1.505972         0.019130         0.017395
 C         1.978756        -1.089900        -1.023114
 C         3.211833        -1.351069        -0.037262
 O         3.903146        -2.543237         0.167997
 C         3.796395        -0.003240         0.400964
 O         3.534352         1.154555        -0.379663
 C         2.108975         1.386035        -0.360131
 C         2.549429        -0.514588         1.055968
 H        -0.304951         0.712061         1.042644
 H        -0.445532         0.237620        -0.623541
 H        -0.319947        -1.035999         0.695997
 H         1.363056        -1.973031        -1.080679
 H         2.207213        -0.662104        -2.089240
 H         4.825270        -2.370531        -0.205249
 H         4.783924        -0.022089         0.967250
 H         1.725103         2.177372         0.328578
 H         2.003274         1.720583        -1.472029
 H         2.496678        -0.737390         2.132255
