19
Iteration:  3855
 C         0.051012        -0.194164         0.390251
 C         1.537577        -0.000844         0.048122
 C         2.087523        -1.017934        -0.994091
 C         3.190528        -1.295414         0.022662
 O         3.775404        -2.585236         0.081629
 C         3.811876         0.056374         0.305110
 O         3.525915         1.125362        -0.477003
 C         2.111079         1.465851        -0.415428
 C         2.611750        -0.416319         1.136029
 H        -0.316076         0.640912         1.205408
 H        -0.673242        -0.034758        -0.386536
 H        -0.046086        -1.196074         0.710656
 H         1.368634        -1.811388        -1.030087
 H         2.522009        -0.531260        -2.009031
 H         3.762611        -3.085315         0.921925
 H         4.802537         0.136670         0.852458
 H         1.847659         2.130986         0.375018
 H         1.772932         1.697518        -1.465180
 H         2.458299        -0.565775         2.187002
