19
Iteration:  2897charge 0 multiplicity 1
 C         0.056025         0.002257         0.360308
 C         1.490310        -0.009242         0.032029
 C         2.011649        -1.212181        -0.823595
 C         3.238597        -1.367637         0.001804
 O         3.963460        -2.518400        -0.003409
 C         3.753607         0.063178         0.418169
 O         3.506944         1.212681        -0.427494
 C         2.088524         1.354612        -0.468381
 C         2.582710        -0.425299         1.152495
 H        -0.291781         0.751740         1.041636
 H        -0.335662         0.442289        -0.636859
 H        -0.399358        -0.952403         0.563997
 H         1.386408        -2.087189        -0.935886
 H         2.359246        -0.897400        -1.870172
 H         3.395962        -3.360253         0.027798
 H         4.731631         0.055125         0.807395
 H         1.792081         2.261188         0.166018
 H         1.857647         1.442083        -1.565841
 H         2.463145        -0.434387         2.180550
