19
Iteration:    67
 C         0.024961         0.102941         0.318287
 C         1.532433         0.027370         0.002685
 C         1.829659        -1.189292        -0.925227
 C         3.110507        -1.422491        -0.124569
 O         4.034209        -2.477265         0.071700
 C         3.695263         0.004557         0.489327
 O         3.595983         1.225119        -0.183587
 C         2.249614         1.337694        -0.570158
 C         2.493256        -0.585764         1.081184
 H        -0.184272         0.835075         1.062894
 H        -0.486859         0.316100        -0.593447
 H        -0.341604        -0.881068         0.750141
 H         1.034756        -1.924760        -0.768391
 H         1.861400        -0.964906        -1.976290
 H         4.888567        -2.030429        -0.162019
 H         4.701808        -0.235790         0.962387
 H         1.773025         2.262594        -0.309359
 H         2.296503         1.302487        -1.637813
 H         2.284389        -0.751775         2.168588
