19
Iteration:  3282charge 0 multiplicity 1
 C         0.117026        -0.041202         0.390770
 C         1.519733         0.048649         0.054868
 C         2.125016        -0.998692        -1.025531
 C         3.203054        -1.334433        -0.010825
 O         3.874252        -2.564867         0.163434
 C         3.814141         0.050018         0.313763
 O         3.442473         1.118106        -0.507606
 C         2.030930         1.334199        -0.385542
 C         2.586154        -0.481687         1.077077
 H        -0.171635         0.578163         1.321551
 H        -0.442828         0.237947        -0.484574
 H        -0.128892        -1.081010         0.818058
 H         1.523041        -2.001942        -1.086667
 H         2.539369        -0.667158        -2.066305
 H         3.272766        -2.956711         0.771101
 H         4.760681         0.150241         0.938802
 H         1.808902         2.087895         0.496615
 H         1.733997         1.690174        -1.353852
 H         2.422402        -0.617599         2.124519
