19
Iteration:  3956
 C        -0.031990         0.036656         0.407179
 C         1.422683        -0.007708         0.096539
 C         1.984932        -1.145306        -0.953815
 C         3.157818        -1.278818        -0.046313
 O         4.009857        -2.461254         0.000559
 C         3.807038        -0.028023         0.333093
 O         3.576994         1.188839        -0.308530
 C         2.132147         1.285578        -0.549407
 C         2.590156        -0.475694         1.151647
 H        -0.219630         0.685241         1.270164
 H        -0.517045         0.308922        -0.531080
 H        -0.447986        -0.835666         0.711749
 H         1.350439        -2.093057        -0.803442
 H         2.015932        -0.852815        -2.022632
 H         3.790057        -3.032282         0.759250
 H         4.790558        -0.115858         0.767273
 H         1.793217         2.227597        -0.105667
 H         1.881475         1.320221        -1.687407
 H         2.564256        -0.693718         2.256318
