19
Iteration:  4726charge 0 multiplicity 1
 C        -0.003155        -0.067762         0.416738
 C         1.496227         0.007849        -0.039069
 C         2.082814        -1.205581        -1.017967
 C         3.249838        -1.292715        -0.062918
 O         3.868593        -2.486898         0.177939
 C         3.807451         0.014290         0.326213
 O         3.607555         1.200015        -0.345294
 C         2.091321         1.410017        -0.348780
 C         2.509357        -0.436406         1.014574
 H        -0.130034         0.443492         1.336558
 H        -0.587777         0.247560        -0.478280
 H        -0.413906        -1.125763         0.490062
 H         1.288840        -2.034818        -0.780001
 H         2.253060        -1.074215        -2.097688
 H         3.415158        -3.200985        -0.383403
 H         4.731745         0.008922         0.980961
 H         1.924260         2.194307         0.436807
 H         1.795800         2.119024        -1.268256
 H         2.442873        -0.941751         1.934708
