19
Iteration:  2267charge 0 multiplicity 1
 C         0.017479        -0.122759         0.287401
 C         1.503189         0.003440         0.004542
 C         2.071766        -0.896888        -1.089491
 C         3.165448        -1.331651        -0.088790
 O         3.954392        -2.470112         0.351950
 C         3.749577        -0.032124         0.416669
 O         3.533779         1.063114        -0.466960
 C         2.133086         1.438033        -0.251683
 C         2.495128        -0.569286         0.981791
 H        -0.397025         0.518352         1.148271
 H        -0.527097         0.218692        -0.642278
 H        -0.282292        -1.113894         0.545578
 H         1.275311        -1.668133        -1.366302
 H         2.400351        -0.295223        -2.001955
 H         4.157743        -2.982746        -0.478712
 H         4.846259         0.023451         0.892097
 H         2.139468         1.966431         0.675143
 H         1.799914         1.997586        -1.119925
 H         2.286471        -0.826032         2.026503
