19
Iteration:   661charge 0 multiplicity 1
 C         0.097747        -0.027113         0.306596
 C         1.544996         0.111359        -0.058540
 C         1.961252        -1.170867        -0.962846
 C         3.124523        -1.296746        -0.051388
 O         3.875932        -2.489440         0.112227
 C         3.708559        -0.031925         0.472835
 O         3.626570         1.114517        -0.328831
 C         2.233043         1.438961        -0.404012
 C         2.417364        -0.512804         1.075185
 H        -0.213423         0.541948         1.134754
 H        -0.576594         0.185823        -0.545781
 H        -0.030706        -1.161682         0.484842
 H         1.286543        -2.008670        -0.783422
 H         2.100982        -1.057821        -2.034693
 H         4.707046        -2.318931        -0.385352
 H         4.655594        -0.292174         0.999334
 H         1.867724         2.128941         0.361689
 H         2.064835         1.980638        -1.470751
 H         2.183825        -0.932066         2.131608
