19
Iteration:  2952charge 0 multiplicity 1
 C         0.106670         0.256474         0.513584
 C         1.453560        -0.051186        -0.076244
 C         1.868218        -1.320048        -0.942797
 C         3.200891        -1.379464        -0.127172
 O         4.138140        -2.293582         0.041494
 C         3.715766        -0.042209         0.411979
 O         3.551985         1.282335        -0.186495
 C         2.163322         1.193078        -0.620914
 C         2.417333        -0.602960         1.077895
 H         0.154763         1.216894         1.044776
 H        -0.758728         0.231086        -0.266222
 H        -0.223293        -0.544183         1.157598
 H         1.271426        -2.167099        -0.569695
 H         1.795276        -1.373443        -2.107012
 H         3.968172        -3.243983         0.236114
 H         4.633257         0.046630         0.983529
 H         1.746963         2.203555        -0.410183
 H         2.184815         1.244942        -1.721746
 H         2.222099        -0.873382         2.094589
