19
Iteration:   516
 C        -0.003636         0.064246         0.312199
 C         1.476108        -0.029133         0.004769
 C         2.245290        -1.099782        -0.992692
 C         3.303289        -1.328499         0.016498
 O         3.682842        -2.628029         0.022551
 C         3.787369         0.056478         0.411686
 O         3.527783         1.175573        -0.383088
 C         2.079263         1.362178        -0.366565
 C         2.567778        -0.488284         1.110243
 H        -0.214562         0.825069         1.067400
 H        -0.649599         0.269082        -0.488842
 H        -0.387062        -1.016166         0.584250
 H         1.583096        -2.000743        -1.242372
 H         2.681087        -0.767569        -1.906214
 H         4.464301        -2.782479         0.532542
 H         4.677503         0.148569         1.075581
 H         1.734653         1.976278         0.425177
 H         1.914108         1.870924        -1.427446
 H         2.490526        -0.540119         2.147109
