19
Iteration:   351charge 0 multiplicity 1
 C         0.149728        -0.160558         0.290590
 C         1.592578         0.023914        -0.041902
 C         2.037934        -1.029766        -1.122545
 C         3.109523        -1.347444        -0.019810
 O         3.798316        -2.568981         0.262288
 C         3.743242         0.012900         0.384704
 O         3.561485         1.228752        -0.324641
 C         2.127185         1.406475        -0.314410
 C         2.518415        -0.476782         1.014140
 H         0.048408         0.703807         1.035352
 H        -0.605971         0.096098        -0.408738
 H        -0.162240        -1.182652         0.732452
 H         1.318205        -1.872216        -1.154074
 H         2.357662        -0.716809        -2.147725
 H         4.038424        -2.993089        -0.577822
 H         4.693603        -0.098161         0.834906
 H         1.965206         2.188694         0.502550
 H         1.998393         1.961827        -1.263375
 H         2.381877        -0.593595         2.119278
