19
Iteration:  4331
 C         0.066689         0.114276         0.426617
 C         1.478253         0.021920         0.015953
 C         2.039253        -1.167240        -0.914542
 C         3.155231        -1.360892         0.087479
 O         4.012165        -2.503893        -0.075026
 C         3.757148        -0.045639         0.417192
 O         3.503323         1.093871        -0.446964
 C         2.167518         1.361724        -0.476292
 C         2.401428        -0.466501         1.122993
 H        -0.028945         0.851170         1.195941
 H        -0.697632         0.024094        -0.451195
 H        -0.206592        -0.920802         1.002445
 H         1.378317        -2.151264        -0.826130
 H         2.250278        -0.905255        -1.953951
 H         4.889208        -2.237522         0.106160
 H         4.741550         0.083822         0.955371
 H         1.858366         2.140187         0.267066
 H         1.722510         1.668794        -1.351884
 H         2.194378        -0.295935         2.202390
