19
Iteration:  2495
 C         0.108913         0.000317         0.427019
 C         1.551605        -0.030063        -0.025944
 C         2.018898        -1.085129        -1.051984
 C         3.196575        -1.355492        -0.074622
 O         3.952848        -2.539019         0.120553
 C         3.733963         0.057092         0.458206
 O         3.490213         1.229347        -0.298214
 C         2.098321         1.323023        -0.493820
 C         2.569755        -0.517285         1.008409
 H        -0.029352         0.974236         1.182288
 H        -0.608490         0.110225        -0.309857
 H        -0.173777        -0.877665         1.020912
 H         1.195588        -1.961418        -1.185598
 H         2.421251        -0.761689        -2.006903
 H         3.292078        -3.128154         0.590935
 H         4.687863        -0.017769         0.856114
 H         1.775816         2.217003         0.132252
 H         1.846228         1.582364        -1.500590
 H         2.311590        -0.695985         2.050369
