19
Iteration:  3087
 C         0.070629         0.014609         0.464634
 C         1.516381        -0.077440        -0.020710
 C         2.070920        -1.110635        -1.061725
 C         3.223811        -1.306160        -0.057760
 O         3.880182        -2.513321         0.100631
 C         3.833869        -0.008422         0.444045
 O         3.513446         1.306592        -0.373316
 C         2.086413         1.317171        -0.458065
 C         2.526537        -0.526720         1.021900
 H        -0.065739         0.938654         1.142080
 H        -0.607482         0.022472        -0.244917
 H        -0.110282        -0.941472         1.019806
 H         1.460582        -2.078700        -0.965070
 H         2.202577        -0.886910        -2.039801
 H         3.334904        -3.002136         0.698788
 H         4.719451        -0.081301         1.018335
 H         1.673146         2.120076         0.132428
 H         1.807326         1.531604        -1.483361
 H         2.486883        -0.742038         2.046448
