19
Iteration:  4231charge 0 multiplicity 1
 C         0.137158        -0.042551         0.452776
 C         1.509654         0.015905        -0.030786
 C         2.063242        -1.146123        -1.041819
 C         3.267896        -1.271811        -0.021193
 O         3.828718        -2.598104         0.205424
 C         3.763816         0.035390         0.395548
 O         3.512642         1.218173        -0.494847
 C         2.101867         1.408961        -0.374830
 C         2.533947        -0.478541         1.066616
 H        -0.050529         0.610132         1.391538
 H        -0.614767         0.255965        -0.400165
 H        -0.093636        -1.103340         0.860884
 H         1.391494        -2.083953        -0.956627
 H         2.178684        -0.767661        -2.091126
 H         4.008595        -2.936839        -0.684289
 H         4.629339         0.083979         0.971269
 H         1.698088         2.069390         0.393369
 H         1.772787         1.744163        -1.311837
 H         2.226842        -0.849841         2.059066
