19
Iteration:  2605
 C         0.100474         0.067562         0.409074
 C         1.514250        -0.051063         0.054823
 C         2.060537        -1.074540        -1.009575
 C         3.233236        -1.326206        -0.026198
 O         3.896201        -2.608707         0.088770
 C         3.741316         0.052809         0.349884
 O         3.484531         1.148228        -0.458797
 C         2.059364         1.352336        -0.385057
 C         2.554095        -0.500907         1.083666
 H        -0.131257         0.936417         1.203678
 H        -0.435118         0.197971        -0.462118
 H        -0.290056        -0.915119         0.782471
 H         1.433650        -2.090395        -1.061226
 H         2.403038        -0.826667        -2.015910
 H         4.657627        -2.334489         0.678846
 H         4.669608         0.121387         0.932164
 H         1.712310         2.223058         0.314608
 H         1.732757         1.700942        -1.341882
 H         2.131475        -0.697778         2.119780
