19
Iteration:  4226
 C         0.112673        -0.058762         0.503906
 C         1.543398        -0.009885        -0.014037
 C         2.089212        -1.091313        -1.048556
 C         3.237623        -1.263162        -0.028742
 O         3.828124        -2.609904         0.207775
 C         3.762725         0.069759         0.411176
 O         3.511011         1.184896        -0.522682
 C         2.102668         1.400534        -0.380034
 C         2.514195        -0.504292         1.063143
 H        -0.257688         0.650678         1.281736
 H        -0.490738         0.204629        -0.287464
 H        -0.085334        -1.056701         0.737763
 H         1.436617        -1.919257        -1.021183
 H         2.240586        -0.721258        -2.098857
 H         4.055561        -2.952506        -0.675107
 H         4.741980         0.215932         0.987462
 H         1.834424         2.160689         0.424861
 H         1.780833         1.697685        -1.453913
 H         2.105719        -0.800352         2.019835
