19
Iteration:  1635
 C         0.013131        -0.233163         0.434369
 C         1.495944         0.043380        -0.070165
 C         2.042694        -1.039321        -1.116430
 C         3.122416        -1.316946        -0.052579
 O         3.782341        -2.547678         0.229231
 C         3.851679        -0.007392         0.411447
 O         3.627480         1.149064        -0.356119
 C         2.157721         1.464520        -0.373261
 C         2.517722        -0.418409         1.009351
 H        -0.381068         0.364691         1.175665
 H        -0.595767         0.074476        -0.481647
 H        -0.157785        -1.266711         0.712252
 H         1.406238        -1.841368        -1.165283
 H         2.243175        -0.608997        -2.161758
 H         4.715957        -2.448890        -0.110946
 H         4.858500        -0.187275         0.867357
 H         1.888415         2.205365         0.423534
 H         1.844708         1.927830        -1.197722
 H         2.338306        -0.560227         2.016530
