19
Iteration:  2109charge 0 multiplicity 1
 C        -0.037809        -0.011977         0.324231
 C         1.476637        -0.023176         0.027915
 C         1.992369        -1.003486        -1.019776
 C         3.200551        -1.323833        -0.001976
 O         3.928210        -2.534601         0.159134
 C         3.808045        -0.034487         0.360394
 O         3.562997         1.209378        -0.358226
 C         2.108618         1.303278        -0.416575
 C         2.530485        -0.522850         1.096332
 H        -0.081576         0.779244         1.106572
 H        -0.529192         0.337938        -0.521885
 H        -0.467015        -0.976114         0.752807
 H         1.535406        -2.049160        -1.118926
 H         2.305542        -0.614630        -2.001570
 H         4.705415        -2.507733        -0.400037
 H         4.785796        -0.026001         0.912897
 H         1.934695         2.051253         0.266112
 H         1.736521         1.492440        -1.441609
 H         2.401851        -0.692087         2.146687
