19
Iteration:  4262charge 0 multiplicity 1
 C         0.019972         0.037370         0.363942
 C         1.524854         0.002910         0.046436
 C         1.883188        -1.249289        -0.966313
 C         3.195838        -1.384367        -0.059557
 O         3.935720        -2.530124         0.196084
 C         3.819460        -0.002691         0.249142
 O         3.541640         1.323196        -0.287591
 C         2.124634         1.335409        -0.409622
 C         2.622532        -0.461949         1.067262
 H        -0.221300         0.697085         1.287385
 H        -0.465076         0.371885        -0.577814
 H        -0.406134        -0.948826         0.470384
 H         1.291952        -2.114813        -0.867638
 H         1.918320        -1.035885        -2.131347
 H         4.379847        -2.667839        -0.686019
 H         4.808842        -0.145075         0.573295
 H         1.630050         2.182168         0.175722
 H         1.904821         1.578368        -1.415823
 H         2.376318        -0.735649         2.109583
