19
Iteration:   302charge 0 multiplicity 1
 C         0.097509        -0.030194         0.335330
 C         1.564752         0.013478         0.010379
 C         2.054286        -0.958567        -0.985572
 C         3.274978        -1.291549        -0.034736
 O         3.735859        -2.565939         0.099820
 C         3.735844         0.044368         0.501165
 O         3.570108         1.132395        -0.384133
 C         2.093984         1.300233        -0.420118
 C         2.524599        -0.564201         1.064688
 H        -0.178507         0.843076         1.018717
 H        -0.533558         0.179825        -0.612821
 H        -0.238637        -0.998670         0.699470
 H         1.361233        -1.805962        -1.178587
 H         2.258316        -0.479394        -1.938127
 H         4.689158        -2.765237        -0.070514
 H         4.652864         0.152449         1.185727
 H         1.897745         2.146405         0.171139
 H         1.776127         1.588190        -1.521543
 H         2.400846        -0.896379         2.101667
