19
Iteration:  4355charge 0 multiplicity 1
 C        -0.011881        -0.033690         0.385034
 C         1.515179         0.003070         0.105549
 C         1.943934        -1.077325        -0.965438
 C         3.227115        -1.295268        -0.110770
 O         3.881708        -2.515418         0.098022
 C         3.805571         0.003397         0.373477
 O         3.575461         1.130563        -0.439814
 C         2.126431         1.359709        -0.461352
 C         2.593039        -0.493569         1.098429
 H        -0.232081         0.719704         1.138924
 H        -0.618607         0.036903        -0.608417
 H        -0.476183        -1.003669         0.885489
 H         1.333712        -2.055992        -0.713897
 H         1.823756        -0.741116        -1.973325
 H         4.640327        -2.447084         0.695341
 H         4.821954         0.132250         0.821486
 H         1.907415         2.099485         0.289497
 H         1.673924         1.711418        -1.344997
 H         2.557751        -0.697484         2.128032
