19
Iteration:  4281charge 0 multiplicity 1
 C         0.017409         0.102045         0.328631
 C         1.492409        -0.010947         0.075605
 C         1.904355        -1.136058        -0.839854
 C         3.201987        -1.323502        -0.106163
 O         3.966331        -2.487224         0.109944
 C         3.747328         0.021703         0.371964
 O         3.540398         1.200612        -0.326945
 C         2.102074         1.316423        -0.511149
 C         2.650352        -0.643706         1.094366
 H        -0.213265         0.744040         1.184504
 H        -0.384936         0.406412        -0.573230
 H        -0.454484        -0.781468         0.584469
 H         1.159873        -1.853124        -0.651031
 H         1.966137        -0.897799        -1.926447
 H         4.797704        -2.518889        -0.477236
 H         4.724402        -0.013745         0.905927
 H         1.617004         2.213366        -0.056554
 H         1.813291         1.365260        -1.650714
 H         2.614261        -0.796479         2.134976
