19
Iteration:  1381charge 0 multiplicity 1
 C         0.040903         0.336899         0.262969
 C         1.459287        -0.017473        -0.003885
 C         1.995449        -1.275757        -0.834535
 C         3.282318        -1.355625        -0.050342
 O         4.092270        -2.495536        -0.153846
 C         3.662049        -0.036797         0.608439
 O         3.499147         1.165236        -0.232876
 C         2.135211         1.267518        -0.498581
 C         2.411807        -0.587296         1.137445
 H        -0.067592         1.165994         1.053030
 H        -0.447787         0.724154        -0.625157
 H        -0.561939        -0.396266         0.701438
 H         1.305141        -2.157544        -0.559122
 H         2.058022        -1.185251        -1.923091
 H         5.042118        -2.301647        -0.465813
 H         4.656813        -0.016422         1.107678
 H         1.746946         2.132543        -0.101083
 H         1.897672         1.356932        -1.632385
 H         2.202142        -0.827118         2.133367
