19
Iteration:    26
 C         0.044604         0.182264         0.376705
 C         1.471690        -0.051251        -0.036965
 C         2.072416        -1.185579        -0.969796
 C         3.327775        -1.300624        -0.026639
 O         3.834837        -2.636310         0.012409
 C         3.727873         0.071840         0.613611
 O         3.533004         1.283942        -0.253054
 C         2.132492         1.290161        -0.549227
 C         2.485249        -0.569168         1.019631
 H         0.059685         1.113654         0.859133
 H        -0.669971         0.326984        -0.417227
 H        -0.458034        -0.710517         0.989017
 H         1.542504        -2.274203        -0.783010
 H         2.143321        -1.060978        -2.019264
 H         4.770929        -2.693216        -0.363377
 H         4.725368         0.135376         1.166934
 H         1.705551         2.254104        -0.126170
 H         1.903102         1.361204        -1.712162
 H         2.380144        -0.871887         2.090232
