19
Iteration:  2711
 C         0.038194         0.154246         0.401171
 C         1.441397        -0.034189         0.037896
 C         2.055097        -1.190650        -0.947995
 C         3.220005        -1.343755         0.040526
 O         4.107830        -2.430215         0.054327
 C         3.793013         0.009847         0.372728
 O         3.478466         1.076548        -0.485509
 C         2.079543         1.350944        -0.379695
 C         2.439832        -0.496365         1.082019
 H        -0.130230         0.969773         1.099765
 H        -0.527538         0.400679        -0.536837
 H        -0.351739        -0.705141         0.876660
 H         1.320753        -2.002238        -0.848722
 H         2.194797        -0.955067        -1.992180
 H         3.629009        -3.289985        -0.149901
 H         4.779219        -0.012171         0.871788
 H         1.840236         2.003962         0.401399
 H         1.830022         1.775082        -1.370070
 H         2.374322        -0.731958         2.219752
