19
Iteration:  4523charge 0 multiplicity 1
 C         0.027815         0.010083         0.393194
 C         1.569300         0.071083         0.087559
 C         1.973609        -1.107864        -0.972781
 C         3.152301        -1.344894        -0.008312
 O         4.017072        -2.506110         0.115992
 C         3.726998        -0.034665         0.363549
 O         3.516203         1.157429        -0.399816
 C         2.091626         1.353333        -0.452781
 C         2.560385        -0.491844         1.123055
 H        -0.471848         0.752217         1.118802
 H        -0.545438         0.112238        -0.487585
 H        -0.169442        -0.931291         0.695878
 H         1.287334        -1.840708        -0.907263
 H         2.179548        -0.746199        -2.040518
 H         3.928471        -2.996476        -0.730902
 H         4.788288        -0.071558         0.777212
 H         1.901464         2.374485         0.057941
 H         1.825056         1.509333        -1.536528
 H         2.660550        -0.849666         2.157439
