19
Iteration:  3524
 C         0.058689         0.168026         0.461191
 C         1.464789        -0.002985        -0.028663
 C         1.935866        -1.217256        -0.901199
 C         3.217834        -1.339745        -0.026132
 O         4.092509        -2.373737         0.028609
 C         3.760319        -0.073006         0.462074
 O         3.553270         1.188989        -0.296093
 C         2.139526         1.283577        -0.580342
 C         2.453107        -0.538441         1.074088
 H        -0.082521         1.279801         0.834509
 H        -0.547998         0.117149        -0.381387
 H        -0.321301        -0.709507         1.038239
 H         1.388826        -2.120666        -0.684628
 H         2.002297        -1.132821        -2.025627
 H         3.639212        -3.185103        -0.079431
 H         4.774018        -0.072039         0.922061
 H         1.569699         2.166833        -0.257306
 H         1.824824         1.248271        -1.740703
 H         2.207905        -0.795666         2.082859
