19
Iteration:  3329charge 0 multiplicity 1
 C         0.008861         0.198622         0.321142
 C         1.508153         0.001221        -0.016921
 C         1.918595        -1.313956        -0.801855
 C         3.196849        -1.433122        -0.019066
 O         4.186543        -2.335462        -0.041892
 C         3.710374        -0.062971         0.402769
 O         3.545718         1.139788        -0.333240
 C         2.156018         1.322289        -0.495684
 C         2.422095        -0.447519         1.144138
 H        -0.079402         0.920700         1.267710
 H        -0.569322         0.580314        -0.512131
 H        -0.383514        -0.723476         0.775516
 H         1.109684        -2.169701        -0.597905
 H         1.950061        -1.095979        -1.893711
 H         3.789169        -3.202367        -0.204867
 H         4.689274        -0.201468         0.745477
 H         1.659971         2.136470         0.210023
 H         1.902049         1.432886        -1.512299
 H         2.315333        -0.521708         2.263617
