19
Iteration:  2051
 C         0.072349        -0.288744         0.423881
 C         1.507783         0.036645        -0.060656
 C         2.196812        -1.042150        -1.101116
 C         3.215528        -1.320053        -0.027028
 O         3.607729        -2.615212         0.268119
 C         3.886708         0.104566         0.374977
 O         3.525846         1.199922        -0.439759
 C         2.085166         1.446172        -0.312037
 C         2.611439        -0.389788         1.012407
 H        -0.266352         0.325791         1.178612
 H        -0.816349        -0.233402        -0.356004
 H         0.102831        -1.392532         0.713400
 H         1.763638        -1.863172        -1.545864
 H         2.778678        -0.465826        -1.922023
 H         3.743699        -3.088202        -0.604022
 H         4.823211         0.194538         0.992756
 H         1.984379         2.047551         0.514017
 H         1.597683         2.138644        -1.082907
 H         2.371895        -0.383034         2.093683
