19
Iteration:  2369
 C         0.103978         0.153223         0.435202
 C         1.484260         0.000007        -0.079875
 C         1.923757        -1.247957        -0.965095
 C         3.162797        -1.329400        -0.092881
 O         4.125452        -2.363134        -0.005168
 C         3.655337        -0.038812         0.535776
 O         3.566224         1.196963        -0.170046
 C         2.153104         1.274301        -0.608790
 C         2.461192        -0.590713         1.044118
 H        -0.003900         1.032538         0.954804
 H        -0.732435         0.138017        -0.478026
 H        -0.261276        -0.699693         1.127878
 H         1.217524        -2.016009        -0.747006
 H         2.040347        -1.124635        -2.175247
 H         3.976056        -2.950175         0.754138
 H         4.594864        -0.116195         0.958596
 H         1.608424         2.160848        -0.222015
 H         2.263112         1.552998        -1.709982
 H         2.045003        -0.767049         2.075402
