19
Iteration:  2406charge 0 multiplicity 1
 C        -0.021158         0.030956         0.307500
 C         1.536097        -0.036720         0.053441
 C         2.064962        -1.103533        -0.982234
 C         3.201243        -1.337370        -0.000240
 O         3.963966        -2.567854         0.113124
 C         3.783689         0.084436         0.440935
 O         3.562786         1.207909        -0.352818
 C         2.026102         1.307846        -0.493263
 C         2.563304        -0.478272         1.128205
 H        -0.339820         0.868476         1.132389
 H        -0.397063         0.351406        -0.612098
 H        -0.449116        -0.889769         0.588200
 H         1.284590        -1.995226        -0.972148
 H         2.340519        -0.875310        -2.016697
 H         3.736671        -3.046846        -0.730504
 H         4.821003        -0.066756         0.922016
 H         1.708332         1.968138         0.347037
 H         1.769006         1.553914        -1.500251
 H         2.391338        -0.521158         2.189030
