19
Iteration:  2583charge 0 multiplicity 1
 C        -0.060962         0.204670         0.293565
 C         1.430900        -0.051446         0.047589
 C         1.975148        -1.182233        -0.884661
 C         3.234913        -1.314971         0.008049
 O         4.017246        -2.465003        -0.008329
 C         3.778534        -0.035029         0.433159
 O         3.533161         1.118312        -0.407962
 C         2.113106         1.273602        -0.468047
 C         2.564760        -0.543192         1.158675
 H        -0.123939         0.990753         1.214063
 H        -0.620568         0.498516        -0.523258
 H        -0.558166        -0.738245         0.629409
 H         1.417006        -2.262013        -0.770550
 H         2.081851        -0.899315        -1.947498
 H         4.939510        -2.215805        -0.164019
 H         4.726403        -0.029828         0.955994
 H         1.799816         2.152983         0.223748
 H         1.672623         1.615958        -1.368311
 H         2.559636        -0.594957         2.304041
