19
Iteration:  2576
 C        -0.063026         0.234823         0.303999
 C         1.421094        -0.060743         0.064696
 C         1.935528        -1.218265        -0.848103
 C         3.236706        -1.311689         0.002739
 O         4.051638        -2.462513        -0.035172
 C         3.744860        -0.024972         0.399055
 O         3.550480         1.090967        -0.382203
 C         2.110755         1.304368        -0.462591
 C         2.569157        -0.526928         1.202965
 H        -0.296707         0.890657         1.061200
 H        -0.569374         0.587856        -0.663634
 H        -0.504747        -0.775986         0.552688
 H         1.561627        -2.196242        -0.713568
 H         2.110473        -1.118723        -1.941536
 H         4.849991        -2.013378        -0.467896
 H         4.749162        -0.034880         0.983216
 H         1.821068         2.089522         0.168288
 H         1.960410         1.587298        -1.564947
 H         2.360512        -0.642064         2.270080
