19
Iteration:  1626charge 0 multiplicity 1
 C         0.034871        -0.158286         0.382915
 C         1.493019         0.068901        -0.031503
 C         1.986426        -1.026280        -1.035979
 C         3.195868        -1.340957        -0.060138
 O         3.805324        -2.556493         0.189249
 C         3.801388        -0.022532         0.431216
 O         3.631034         1.232136        -0.326710
 C         2.140855         1.410458        -0.418185
 C         2.524080        -0.476211         1.010772
 H        -0.240467         0.453418         1.174630
 H        -0.690795        -0.052968        -0.399834
 H        -0.108376        -1.257645         0.625356
 H         1.319787        -1.858518        -0.948689
 H         2.257475        -0.938411        -2.142935
 H         4.662268        -2.593407        -0.307268
 H         4.823753        -0.039385         0.986830
 H         1.931480         2.165369         0.324140
 H         1.923583         1.763242        -1.461014
 H         2.156256        -0.713752         1.961242
