19
Iteration:  1337
 C        -0.061952         0.031115         0.260874
 C         1.486723        -0.003036         0.073401
 C         1.912402        -1.154773        -0.893325
 C         3.199808        -1.316731        -0.110442
 O         3.912933        -2.498849        -0.040200
 C         3.773123        -0.045622         0.442805
 O         3.625805         1.225337        -0.154345
 C         2.188913         1.297907        -0.525563
 C         2.546506        -0.479035         1.150300
 H        -0.300150         0.742563         1.116484
 H        -0.478136         0.474663        -0.625697
 H        -0.481486        -0.866846         0.566384
 H         1.249872        -2.042568        -0.804940
 H         2.003493        -0.956317        -1.964168
 H         4.876362        -2.198836        -0.159385
 H         4.713031        -0.221062         0.981194
 H         1.767661         2.204124        -0.217655
 H         2.200169         1.212473        -1.714991
 H         2.419841        -0.734637         2.123898
