19
Iteration:  2750charge 0 multiplicity 1
 C        -0.029703         0.235344         0.330847
 C         1.458143        -0.067612         0.051702
 C         1.788833        -1.282451        -0.786525
 C         3.145465        -1.343970         0.043925
 O         4.233509        -2.348780        -0.173184
 C         3.770242        -0.054457         0.406239
 O         3.567345         1.194602        -0.273161
 C         2.146549         1.212959        -0.545745
 C         2.521877        -0.504109         1.178881
 H        -0.207543         1.120152         0.990001
 H        -0.399993         0.557819        -0.700365
 H        -0.727388        -0.648770         0.544381
 H         1.223840        -2.237714        -0.664584
 H         2.075912        -1.091146        -1.882234
 H         3.973263        -3.091669         0.331357
 H         4.698541        -0.077636         0.879892
 H         1.707554         2.205284        -0.106132
 H         1.977029         1.246346        -1.660265
 H         2.397705        -0.665133         2.214305
