19
Iteration:  3068charge 0 multiplicity 1
 C         0.094831        -0.081242         0.455017
 C         1.479100         0.027111        -0.028645
 C         2.081942        -1.081944        -1.103497
 C         3.218299        -1.341398        -0.146562
 O         3.908705        -2.498853         0.286681
 C         3.788208         0.011551         0.321515
 O         3.510744         1.148362        -0.386875
 C         2.071431         1.391000        -0.341325
 C         2.576676        -0.503386         0.977316
 H        -0.081941         0.764123         1.071961
 H        -0.709897         0.051337        -0.371439
 H        -0.105553        -0.938347         1.120940
 H         1.296086        -1.811078        -1.326223
 H         2.344925        -0.555853        -2.099107
 H         3.224187        -3.075756         0.687285
 H         4.794434         0.130677         0.675661
 H         1.903730         2.055123         0.540494
 H         1.696628         1.879463        -1.311344
 H         2.344237        -0.758894         1.963827
