19
Iteration:   449
 C        -0.064533         0.100837         0.377302
 C         1.474144        -0.034236        -0.020811
 C         1.949406        -1.148725        -0.961387
 C         3.199639        -1.274256        -0.060757
 O         3.964832        -2.482944        -0.061479
 C         3.733585        -0.013734         0.494322
 O         3.702699         1.147437        -0.247057
 C         2.197558         1.216651        -0.496093
 C         2.422579        -0.427000         1.094806
 H        -0.381993         0.936307         1.102749
 H        -0.732043         0.245706        -0.462647
 H        -0.439971        -0.927928         0.741473
 H         1.312670        -2.064748        -0.942536
 H         2.197179        -0.806219        -1.975064
 H         4.468948        -2.349359         0.775498
 H         4.668038         0.072356         1.111096
 H         2.048257         2.093275         0.028220
 H         2.003394         1.304724        -1.675611
 H         2.368370        -0.975499         2.057847
