19
Iteration:  4980charge 0 multiplicity 1
 C         0.059430        -0.091181         0.406492
 C         1.518176         0.001805        -0.035937
 C         2.042340        -1.138525        -0.972794
 C         3.178165        -1.363003         0.002943
 O         3.944434        -2.485595        -0.003704
 C         3.714495        -0.006068         0.449365
 O         3.577486         1.187595        -0.411165
 C         2.152822         1.469675        -0.433341
 C         2.498880        -0.457629         1.099154
 H        -0.212652         0.717502         1.221218
 H        -0.715796        -0.053505        -0.328003
 H        -0.104316        -0.979550         0.977590
 H         1.455975        -1.999189        -0.909378
 H         2.488231        -0.863334        -1.927909
 H         3.453672        -3.212734         0.370173
 H         4.549792         0.060213         1.184013
 H         1.977251         2.370989         0.133354
 H         1.824874         1.572624        -1.538467
 H         2.105137        -0.626590         2.211729
