19
Iteration:  2733
 C        -0.014252         0.259658         0.301666
 C         1.453288        -0.050602         0.083157
 C         1.910017        -1.270922        -0.851471
 C         3.235040        -1.372654        -0.065988
 O         4.194015        -2.297867        -0.066858
 C         3.669238        -0.001866         0.480081
 O         3.546699         1.078242        -0.401945
 C         2.128599         1.263261        -0.454936
 C         2.519625        -0.562263         1.126300
 H        -0.015143         1.071809         1.048905
 H        -0.552569         0.657458        -0.599710
 H        -0.527765        -0.494195         0.814368
 H         1.252728        -2.109565        -0.528096
 H         1.773635        -1.130354        -1.924190
 H         3.953570        -3.166465         0.212047
 H         4.689095        -0.075263         0.957287
 H         1.864660         1.997555         0.238352
 H         1.745538         1.478817        -1.474741
 H         2.296410        -0.694508         2.279709
