19
Iteration:  3932charge 0 multiplicity 1
 C         0.069068         0.210351         0.341150
 C         1.461392        -0.080751         0.009655
 C         1.944554        -1.252400        -0.842440
 C         3.269154        -1.310176        -0.076001
 O         4.040230        -2.522867        -0.041860
 C         3.743036         0.063866         0.428139
 O         3.459523         1.224984        -0.347926
 C         2.112385         1.278185        -0.465200
 C         2.570009        -0.572056         1.105387
 H         0.041958         0.955627         1.224045
 H        -0.321941         0.542030        -0.577906
 H        -0.502588        -0.512195         0.788852
 H         1.227222        -2.034262        -0.661252
 H         2.076323        -0.882452        -1.974183
 H         4.111307        -2.911987         0.798653
 H         4.673114         0.062091         0.903816
 H         1.576730         2.161191         0.121090
 H         1.849636         1.346958        -1.580014
 H         2.379228        -0.812313         2.134081
