19
Iteration:  3405charge 0 multiplicity 1
 C         0.124621         0.005379         0.377864
 C         1.517107        -0.013199        -0.043942
 C         1.946825        -1.154720        -0.929447
 C         3.164879        -1.352094        -0.070949
 O         4.018069        -2.500297         0.093308
 C         3.731230         0.002671         0.373736
 O         3.584409         1.265950        -0.288952
 C         2.092942         1.353104        -0.464195
 C         2.516693        -0.479394         1.056479
 H        -0.056209         0.969582         1.110501
 H        -0.560295         0.049522        -0.407073
 H        -0.180590        -0.963938         0.848612
 H         1.055612        -1.981554        -0.792890
 H         2.165194        -1.182435        -2.071802
 H         3.535017        -3.355982         0.239721
 H         4.641852        -0.067688         0.848426
 H         1.759169         2.265780         0.145843
 H         1.823758         1.454931        -1.519449
 H         2.194180        -0.576704         2.090489
