19
Iteration:  2727
 C        -0.003276         0.257992         0.333947
 C         1.508995        -0.015333         0.037427
 C         1.914368        -1.260592        -0.850104
 C         3.241534        -1.324921        -0.082461
 O         4.195461        -2.310098        -0.033817
 C         3.678634        -0.052452         0.464422
 O         3.522130         1.072186        -0.438163
 C         2.112383         1.262470        -0.416354
 C         2.501075        -0.569425         1.146537
 H        -0.066478         1.181458         1.039726
 H        -0.555272         0.566122        -0.538504
 H        -0.600568        -0.622046         0.780515
 H         1.379411        -2.237879        -0.599145
 H         2.005153        -1.177035        -1.973010
 H         3.714980        -3.186363         0.157496
 H         4.623985        -0.019170         0.978424
 H         1.879485         2.146348         0.318997
 H         1.643350         1.481453        -1.376372
 H         2.201632        -0.702082         2.112233
