19
Iteration:  2844charge 0 multiplicity 1
 C         0.047252        -0.151789         0.372277
 C         1.465118         0.076672         0.030842
 C         2.046420        -0.988960        -1.121094
 C         3.161180        -1.336305         0.016836
 O         3.967408        -2.513733         0.317495
 C         3.748439         0.011859         0.314659
 O         3.507444         1.111761        -0.598116
 C         2.127889         1.405959        -0.260710
 C         2.591071        -0.492879         1.096355
 H        -0.225653         0.641606         1.158121
 H        -0.513828         0.116464        -0.462760
 H        -0.225220        -1.139969         0.705846
 H         1.287916        -1.802956        -1.317250
 H         2.386716        -0.612278        -2.043825
 H         3.561528        -3.159031        -0.365935
 H         4.697501        -0.048965         0.772850
 H         2.190247         2.047423         0.612632
 H         1.651807         1.961838        -1.104742
 H         2.483480        -0.671938         2.103423
