19
Iteration:  4312charge 0 multiplicity 1
 C        -0.004626         0.151647         0.442399
 C         1.447674        -0.069778        -0.013524
 C         2.065161        -1.207254        -0.879100
 C         3.224763        -1.349734         0.035517
 O         3.986813        -2.506394        -0.099546
 C         3.678285         0.042038         0.482768
 O         3.601382         1.103170        -0.444432
 C         2.073658         1.275185        -0.464814
 C         2.495441        -0.415962         1.176205
 H         0.082546         1.039078         1.094316
 H        -0.679659         0.338471        -0.474837
 H        -0.498726        -0.745989         0.929814
 H         1.268640        -2.045884        -1.019014
 H         2.447321        -0.961795        -1.839204
 H         4.818968        -2.188508        -0.393988
 H         4.576024        -0.056225         1.167858
 H         1.741169         2.064287         0.186689
 H         1.886931         1.556089        -1.562812
 H         2.318925        -0.474727         2.214164
