19
Iteration:   638charge 0 multiplicity 1
 C         0.031021         0.091701         0.311213
 C         1.533743         0.015982        -0.063078
 C         2.002734        -1.112901        -1.019708
 C         3.138104        -1.409926        -0.000933
 O         3.944852        -2.591779         0.097818
 C         3.755284        -0.016345         0.429479
 O         3.564557         1.244860        -0.191401
 C         2.173648         1.334858        -0.452563
 C         2.506454        -0.497980         1.100507
 H        -0.005813         0.961784         0.967106
 H        -0.662426         0.300474        -0.489384
 H        -0.447132        -0.897543         0.805646
 H         1.258193        -1.960932        -1.184655
 H         2.317002        -0.745748        -1.979273
 H         4.236034        -2.779524        -0.845836
 H         4.680669        -0.103770         0.991041
 H         1.683890         2.215258        -0.033222
 H         1.936019         1.355504        -1.669945
 H         2.302201        -0.467173         2.246809
