19
Iteration:   496
 C         0.088703         0.025095         0.275502
 C         1.583474         0.016228        -0.005768
 C         2.057813        -1.133311        -0.989290
 C         3.196815        -1.387843         0.034640
 O         3.805626        -2.764922        -0.000813
 C         3.794798         0.014284         0.411031
 O         3.526087         1.363200        -0.264202
 C         2.082860         1.381881        -0.412167
 C         2.565455        -0.428227         1.064535
 H        -0.106470         0.859251         0.835820
 H        -0.578317         0.179057        -0.518511
 H        -0.483266        -0.920927         0.764604
 H         1.304191        -2.003599        -0.922777
 H         2.221804        -0.834904        -1.995057
 H         4.504381        -2.818868         0.734359
 H         4.757697         0.065842         0.908093
 H         1.667521         2.169378         0.228249
 H         1.836020         1.531969        -1.453713
 H         2.267781        -0.464631         2.071807
