19
Iteration:  2233
 C         0.072438        -0.113720         0.385334
 C         1.538737        -0.010138        -0.067011
 C         2.198327        -1.040111        -1.090107
 C         3.184940        -1.358967        -0.063628
 O         3.755071        -2.577435         0.264441
 C         3.828354         0.034625         0.378793
 O         3.510056         1.224570        -0.304524
 C         2.037719         1.403331        -0.345903
 C         2.509548        -0.469414         0.924258
 H         0.015249         0.727603         1.176669
 H        -0.605337         0.026750        -0.403458
 H        -0.132437        -1.028124         0.835634
 H         1.483845        -1.975229        -1.215745
 H         2.500540        -0.707310        -2.069885
 H         4.444573        -2.749053        -0.368437
 H         4.892324        -0.109240         0.798435
 H         1.775606         1.949948         0.528933
 H         1.860528         2.111248        -1.120884
 H         2.211643        -0.753106         1.980609
