19
Iteration:  3742charge 0 multiplicity 1
 C         0.009251         0.211785         0.311480
 C         1.500439        -0.059402         0.034784
 C         1.962237        -1.255549        -0.792738
 C         3.269647        -1.327281         0.044102
 O         4.108280        -2.407784        -0.173898
 C         3.712123         0.040880         0.557414
 O         3.569338         1.108301        -0.375466
 C         2.065425         1.236466        -0.540917
 C         2.433652        -0.470711         1.169301
 H        -0.069148         0.937615         1.190083
 H        -0.322904         0.681861        -0.646388
 H        -0.665078        -0.702693         0.644746
 H         1.400088        -2.124119        -0.444518
 H         2.323957        -1.183254        -1.904060
 H         3.560587        -3.232549        -0.465982
 H         4.584944        -0.093417         1.088143
 H         1.825522         2.017608         0.163005
 H         1.871986         1.533468        -1.545146
 H         2.361390        -0.361176         2.261225
