19
Iteration:  4252
 C         0.046696         0.007542         0.409852
 C         1.524204        -0.034091        -0.067417
 C         1.981460        -1.229748        -0.947260
 C         3.156901        -1.339490        -0.053086
 O         3.888478        -2.524548         0.188485
 C         3.814490         0.034162         0.262318
 O         3.541416         1.257991        -0.283716
 C         2.088913         1.362038        -0.394846
 C         2.648294        -0.477406         1.010541
 H        -0.285047         0.680486         1.306976
 H        -0.517578         0.463635        -0.513336
 H        -0.368254        -1.022132         0.648070
 H         1.194215        -1.947400        -0.691324
 H         2.174419        -1.097563        -2.088045
 H         4.240176        -2.926865        -0.601484
 H         4.777527         0.016929         0.654132
 H         1.699913         2.039428         0.419318
 H         1.881807         1.711160        -1.342363
 H         2.334054        -0.333267         2.053188
