19
Iteration:   190
 C         0.128273        -0.064087         0.391188
 C         1.519479         0.089603        -0.141475
 C         2.032986        -1.056943        -1.024348
 C         3.181353        -1.416575        -0.010136
 O         3.793867        -2.632523         0.162302
 C         3.752140        -0.002874         0.454708
 O         3.560166         1.230242        -0.271347
 C         2.150878         1.457844        -0.443789
 C         2.513828        -0.474550         1.030753
 H        -0.115590         0.648712         1.072650
 H        -0.577856        -0.015190        -0.398246
 H         0.054970        -1.166600         0.727964
 H         1.407291        -2.013023        -1.166489
 H         2.295061        -0.807451        -1.989100
 H         4.508846        -2.681978        -0.451030
 H         4.621242        -0.072806         1.031800
 H         1.743721         2.194318         0.201281
 H         1.913739         1.720142        -1.483021
 H         2.269723        -0.562695         2.080082
