19
Iteration:  1918
 C         0.031645         0.090339         0.354778
 C         1.510486        -0.003666        -0.051948
 C         1.962963        -1.238007        -0.881677
 C         3.222268        -1.313022        -0.064806
 O         3.947411        -2.536489        -0.059741
 C         3.731558         0.002466         0.506829
 O         3.579949         1.275046        -0.206512
 C         2.145402         1.302384        -0.539771
 C         2.487788        -0.496420         1.090479
 H        -0.183194         0.854967         1.090806
 H        -0.680810         0.313085        -0.529524
 H        -0.227994        -0.830145         0.825388
 H         1.281199        -2.045420        -0.620661
 H         2.047135        -1.068160        -2.043473
 H         4.814359        -2.524480         0.412854
 H         4.746085        -0.111280         0.888915
 H         1.655425         2.193061        -0.172497
 H         1.963630         1.198794        -1.737442
 H         2.180300        -0.728256         2.136314
