19
Iteration:  2772
 C         0.040438         0.143907         0.339987
 C         1.522781        -0.024496         0.094839
 C         1.942244        -1.253918        -0.798955
 C         3.210589        -1.319278        -0.058589
 O         4.066952        -2.436401        -0.132788
 C         3.747902         0.011101         0.450185
 O         3.494961         1.224541        -0.199742
 C         2.135518         1.222996        -0.640956
 C         2.514023        -0.463589         1.164666
 H        -0.172682         0.884506         1.154758
 H        -0.563339         0.396065        -0.610683
 H        -0.398581        -0.887601         0.603967
 H         1.219277        -2.009638        -0.375499
 H         1.907454        -1.194114        -1.963228
 H         3.494918        -3.279863         0.011084
 H         4.735549        -0.017267         0.825289
 H         1.663952         2.278632        -0.465824
 H         2.245153         1.150105        -1.732859
 H         2.661144        -0.529761         2.219742
