19
Iteration:  4193
 C         0.028186        -0.098976         0.428088
 C         1.525850         0.019387         0.018874
 C         2.066782        -0.976261        -0.994536
 C         3.155241        -1.328719         0.000191
 O         3.810392        -2.571546         0.159261
 C         3.848604        -0.048553         0.283957
 O         3.514107         1.111651        -0.510074
 C         2.076496         1.372235        -0.374976
 C         2.569491        -0.389322         1.193315
 H        -0.391929         0.604234         1.215459
 H        -0.541868        -0.092802        -0.454538
 H        -0.175548        -1.109005         0.718017
 H         1.501154        -1.854246        -1.256757
 H         2.482388        -0.513303        -1.956752
 H         4.747171        -2.466437        -0.267028
 H         4.880573        -0.013475         0.759776
 H         1.967476         2.249631         0.292564
 H         1.726862         1.790068        -1.413658
 H         2.492438        -0.643709         2.275358
