19
Iteration:  2777charge 0 multiplicity 1
 C         0.064589         0.087244         0.374397
 C         1.513104        -0.035311         0.031843
 C         1.884753        -1.216635        -0.801391
 C         3.242165        -1.268287        -0.022372
 O         4.046718        -2.479063        -0.113503
 C         3.759965         0.018658         0.440246
 O         3.496347         1.236356        -0.200855
 C         2.147442         1.242476        -0.646923
 C         2.515709        -0.470657         1.140842
 H        -0.157371         0.851381         1.115323
 H        -0.445042         0.394198        -0.581014
 H        -0.412210        -0.813428         0.650310
 H         1.323273        -2.088237        -0.472377
 H         1.948596        -1.179223        -1.897147
 H         3.392728        -3.151163        -0.105384
 H         4.742130         0.084077         1.007894
 H         1.693023         2.190841        -0.407276
 H         2.164757         1.089290        -1.771652
 H         2.672536        -0.582790         2.251134
