19
Iteration:  2011
 C         0.021132        -0.009090         0.323136
 C         1.499602         0.025787         0.014635
 C         1.987935        -1.071999        -1.019241
 C         3.207441        -1.338038        -0.049175
 O         3.891090        -2.548922         0.180377
 C         3.798009        -0.002600         0.400780
 O         3.526605         1.155085        -0.388075
 C         2.098729         1.386527        -0.369421
 C         2.559348        -0.532405         1.050996
 H        -0.315079         0.718519         1.121790
 H        -0.387294         0.184414        -0.600794
 H        -0.259504        -1.031889         0.721668
 H         1.330504        -1.995221        -1.128488
 H         2.238778        -0.606650        -1.997125
 H         4.770426        -2.424202        -0.181570
 H         4.818188         0.011421         1.000631
 H         1.721968         2.193685         0.401159
 H         1.998467         1.665565        -1.420948
 H         2.466119        -0.721645         2.145777
