19
Iteration:  1996charge 0 multiplicity 1
 C        -0.091329         0.082636         0.305264
 C         1.465475        -0.019364         0.007951
 C         2.009628        -1.199195        -0.952881
 C         3.169955        -1.343485        -0.039478
 O         4.020298        -2.498984         0.059075
 C         3.742161        -0.041922         0.401676
 O         3.609702         1.174489        -0.311552
 C         2.166869         1.356580        -0.400910
 C         2.512207        -0.466856         1.099528
 H        -0.236072         0.749115         1.089747
 H        -0.761440         0.416670        -0.582280
 H        -0.581242        -0.854009         0.633248
 H         1.310710        -1.932931        -0.703337
 H         2.092806        -1.182053        -2.122911
 H         4.884502        -2.295566        -0.271448
 H         4.668480        -0.068728         0.852316
 H         2.041869         2.103750         0.348102
 H         1.663749         1.669965        -1.429740
 H         2.279427        -0.642977         2.131755
