19
Iteration:  4678
 C         0.034847         0.140086         0.362190
 C         1.517947         0.008347         0.050988
 C         2.046397        -1.126272        -0.944968
 C         3.149351        -1.449521         0.038317
 O         3.979406        -2.498008         0.012616
 C         3.749333        -0.019609         0.442747
 O         3.482444         1.219334        -0.280525
 C         2.084496         1.294499        -0.506096
 C         2.563506        -0.540494         1.106337
 H        -0.013885         0.948587         1.070279
 H        -0.542370         0.190107        -0.561426
 H        -0.319912        -0.800375         0.856315
 H         1.344830        -2.016766        -1.050106
 H         2.402906        -0.855579        -1.971511
 H         4.528657        -2.421001        -0.784574
 H         4.750882        -0.150948         0.738094
 H         1.630078         2.280978        -0.256741
 H         1.896804         1.288762        -1.567676
 H         2.317331        -0.496714         2.188142
