19
Iteration:  1191charge 0 multiplicity 1
 C         0.078670         0.200118         0.387091
 C         1.472691        -0.013712        -0.026765
 C         2.051917        -1.056738        -0.975431
 C         3.227764        -1.289254        -0.049404
 O         3.976632        -2.527841        -0.012145
 C         3.696973        -0.042870         0.550818
 O         3.558414         1.149489        -0.258837
 C         2.103189         1.255831        -0.570713
 C         2.395621        -0.624248         1.119245
 H         0.131651         1.077611         0.980925
 H        -0.509313         0.332010        -0.460532
 H        -0.440580        -0.644493         0.958583
 H         1.445485        -2.034570        -0.784050
 H         2.172714        -0.832968        -1.977869
 H         4.891109        -2.377305        -0.215999
 H         4.572852        -0.075331         1.222428
 H         1.701877         2.107098        -0.124903
 H         2.027790         1.519441        -1.667619
 H         2.258490        -0.977079         2.145049
