19
Iteration:   494
 C         0.110674         0.020921         0.265693
 C         1.577593         0.025595         0.007539
 C         2.036288        -1.133287        -0.986835
 C         3.186775        -1.395321         0.025256
 O         3.817144        -2.755487         0.001526
 C         3.778764         0.021749         0.399443
 O         3.526523         1.358066        -0.253773
 C         2.094502         1.381853        -0.409271
 C         2.573409        -0.427258         1.067358
 H        -0.123830         0.917137         0.852955
 H        -0.583850         0.133061        -0.502405
 H        -0.419218        -0.929717         0.729796
 H         1.228394        -1.956115        -0.909649
 H         2.197694        -0.903092        -2.017981
 H         4.501409        -2.814788         0.749137
 H         4.749885         0.062431         0.972028
 H         1.631480         2.119416         0.193729
 H         1.889186         1.534152        -1.568211
 H         2.272383        -0.541393         2.061641
