19
Iteration:  1854charge 0 multiplicity 1
 C         0.088778        -0.173436         0.283004
 C         1.549457         0.031925         0.065296
 C         2.163880        -0.919792        -1.026280
 C         3.240688        -1.352812         0.044902
 O         3.724245        -2.593074         0.160263
 C         3.787960         0.054125         0.392379
 O         3.448385         1.063364        -0.597543
 C         2.081558         1.467641        -0.233407
 C         2.566323        -0.504986         1.042915
 H        -0.225632         0.368647         1.097230
 H        -0.559786         0.121431        -0.639377
 H        -0.255621        -1.187884         0.565061
 H         1.465868        -1.611721        -1.294673
 H         2.646416        -0.386432        -1.906793
 H         4.359998        -2.649505         0.830383
 H         4.726525         0.222529         0.944969
 H         2.161663         2.235229         0.535844
 H         1.737739         1.753058        -1.186228
 H         2.563755        -0.436240         2.172967
