19
Iteration:  4061charge 0 multiplicity 1
 C         0.047251        -0.017533         0.355195
 C         1.543863         0.046066         0.040058
 C         1.953853        -1.193447        -0.925492
 C         3.166890        -1.313778        -0.013539
 O         3.884206        -2.556099         0.117510
 C         3.812290        -0.012884         0.309936
 O         3.532645         1.179267        -0.441941
 C         2.099219         1.387559        -0.373664
 C         2.583651        -0.446580         1.082212
 H        -0.229556         0.810915         1.087619
 H        -0.602962         0.288969        -0.459576
 H        -0.082455        -1.125983         0.651779
 H         1.187603        -1.984477        -0.740049
 H         1.953508        -1.079107        -2.061127
 H         4.844774        -2.310080        -0.135320
 H         4.695394        -0.007993         0.906735
 H         1.859535         2.162888         0.347767
 H         1.751606         1.669511        -1.328562
 H         2.603589        -0.595953         2.180155
