19
Iteration:  2153charge 0 multiplicity 1
 C         0.043638         0.254502         0.276417
 C         1.478888        -0.119004        -0.017449
 C         1.973066        -1.279470        -0.850031
 C         3.229832        -1.389383         0.028407
 O         4.121343        -2.398324        -0.150692
 C         3.751414        -0.020693         0.499593
 O         3.549445         1.128277        -0.365177
 C         2.085271         1.333766        -0.411872
 C         2.341398        -0.546893         1.154320
 H         0.011394         1.125365         0.998683
 H        -0.442886         0.562064        -0.583073
 H        -0.506408        -0.576819         0.826189
 H         1.265466        -2.174581        -0.686100
 H         1.968379        -1.039029        -1.912202
 H         4.932368        -2.155023         0.294612
 H         4.606690        -0.054759         1.123877
 H         1.781725         2.031728         0.302730
 H         1.947988         1.611170        -1.470186
 H         2.002126        -0.615696         2.154689
