19
Iteration:  4198charge 0 multiplicity 1
 C         0.033154        -0.106533         0.432824
 C         1.492591         0.018127         0.020759
 C         2.097914        -0.963316        -1.003105
 C         3.172127        -1.275584         0.010225
 O         3.812361        -2.580866         0.173400
 C         3.830199        -0.064972         0.321851
 O         3.505593         1.084257        -0.533005
 C         2.071858         1.389508        -0.385713
 C         2.607914        -0.411882         1.177659
 H        -0.356476         0.672438         1.162152
 H        -0.821627         0.027545        -0.389414
 H        -0.054550        -1.182096         0.785599
 H         1.456534        -1.780935        -1.459869
 H         2.488699        -0.357906        -1.892164
 H         4.570453        -2.496768        -0.369506
 H         4.739027         0.017799         0.871858
 H         1.868694         2.246691         0.271332
 H         1.867209         1.625571        -1.380532
 H         2.616303        -0.662302         2.219154
