19
Iteration:  2393
 C         0.013676         0.105011         0.362638
 C         1.463343        -0.031458        -0.042558
 C         2.042860        -1.227914        -0.937966
 C         3.255691        -1.325764        -0.054330
 O         4.026401        -2.473568         0.077750
 C         3.725535        -0.010377         0.447065
 O         3.560975         1.245214        -0.287061
 C         2.115196         1.291256        -0.448247
 C         2.485540        -0.496259         1.045031
 H        -0.057598         0.980143         1.078522
 H        -0.750388         0.274054        -0.470963
 H        -0.361816        -0.774610         0.912961
 H         1.384863        -2.145410        -0.853714
 H         2.208660        -0.964508        -2.061229
 H         3.559812        -3.210930        -0.309549
 H         4.702762        -0.002315         0.993108
 H         1.656268         2.223491        -0.034045
 H         1.973723         1.475902        -1.532417
 H         2.211229        -0.657237         2.127628
