19
Iteration:  3748charge 0 multiplicity 1
 C         0.047676         0.171452         0.340751
 C         1.505907         0.004188         0.027377
 C         2.004981        -1.241203        -0.815676
 C         3.224880        -1.320358         0.049266
 O         4.131155        -2.417756        -0.162295
 C         3.708386         0.020902         0.495285
 O         3.550255         1.068241        -0.360485
 C         2.085593         1.244692        -0.530640
 C         2.392525        -0.447013         1.182388
 H        -0.058592         0.822287         1.217659
 H        -0.271938         0.651046        -0.633383
 H        -0.559870        -0.623490         0.604130
 H         1.242241        -2.031094        -0.545587
 H         2.293610        -1.344780        -1.822963
 H         3.577552        -3.160096        -0.437707
 H         4.714213         0.049989         1.120386
 H         1.806644         2.115884         0.162288
 H         1.682083         1.569938        -1.582343
 H         2.180586        -0.455098         2.249850
