19
Iteration:   160charge 0 multiplicity 1
 C         0.060370        -0.204701         0.328289
 C         1.480991         0.035416        -0.065211
 C         2.007632        -1.083753        -1.077345
 C         3.180044        -1.280750        -0.107685
 O         3.683986        -2.490784         0.294298
 C         3.792573        -0.019824         0.415818
 O         3.661624         1.191802        -0.388183
 C         2.206900         1.413400        -0.257756
 C         2.592716        -0.435954         0.985794
 H        -0.394896         0.484996         1.194869
 H        -0.487366        -0.044414        -0.677300
 H        -0.079387        -1.207302         0.681882
 H         1.388083        -2.042789        -1.168854
 H         2.342411        -0.711396        -2.125477
 H         4.370565        -2.792422        -0.352732
 H         4.715635        -0.149096         0.884636
 H         1.849340         2.104690         0.573784
 H         1.750471         2.046417        -1.184247
 H         2.296100        -0.791049         1.975725
