19
Iteration:  3137charge 0 multiplicity 1
 C        -0.055925         0.136104         0.289133
 C         1.499662        -0.043582         0.114724
 C         1.877642        -1.255480        -0.729678
 C         3.183614        -1.345521        -0.061812
 O         4.160251        -2.346117        -0.129650
 C         3.694745         0.009341         0.417495
 O         3.619602         1.124640        -0.320605
 C         2.136689         1.254817        -0.530178
 C         2.546184        -0.440442         1.224391
 H        -0.399149         0.748452         1.144379
 H        -0.545167         0.712663        -0.709529
 H        -0.558849        -0.816480         0.462271
 H         1.152018        -2.061833        -0.571547
 H         2.027660        -1.195072        -1.968759
 H         3.613857        -3.200673        -0.249229
 H         4.675665        -0.160329         0.878071
 H         1.784930         2.270075        -0.141334
 H         2.055538         1.172753        -1.687025
 H         2.278144        -0.508144         2.317876
