19
Iteration:  4409
 C         0.124952        -0.090759         0.462872
 C         1.560565         0.069362         0.010065
 C         2.096903        -1.087727        -0.927166
 C         3.233505        -1.367525         0.032189
 O         3.767665        -2.653994         0.032766
 C         3.777488         0.080868         0.380383
 O         3.530001         1.164461        -0.517402
 C         2.060171         1.398485        -0.402640
 C         2.546679        -0.386607         1.037936
 H        -0.012003         0.549712         1.268256
 H        -0.746465         0.224206        -0.229624
 H         0.090254        -1.232111         0.674361
 H         1.288923        -1.929427        -1.066141
 H         2.354973        -0.748010        -1.922742
 H         4.269789        -2.849032         0.804569
 H         4.709572         0.309575         0.907608
 H         1.647324         2.156288         0.404770
 H         1.643691         1.606424        -1.327683
 H         2.324126        -0.456344         2.061818
