19
Iteration:  4072charge 0 multiplicity 1
 C         0.013072        -0.007947         0.377786
 C         1.479274        -0.018994         0.015833
 C         1.935828        -1.218603        -0.863300
 C         3.190923        -1.374302        -0.053643
 O         3.910054        -2.514830         0.044045
 C         3.770380         0.023747         0.372854
 O         3.608563         1.201724        -0.434946
 C         2.153148         1.365415        -0.421029
 C         2.532161        -0.384971         1.088220
 H        -0.026508         0.624894         1.321203
 H        -0.655124         0.222909        -0.434048
 H        -0.467878        -0.927571         0.909446
 H         1.292495        -2.089193        -0.616803
 H         2.130873        -1.075167        -1.994231
 H         4.862809        -2.402025        -0.027530
 H         4.774181        -0.038646         0.772252
 H         1.964141         2.155367         0.295293
 H         1.872623         1.701065        -1.369079
 H         2.193729        -0.579258         2.147368
