19
Iteration:  4475charge 0 multiplicity 1
 C         0.039471         0.173269         0.317028
 C         1.524378        -0.024105         0.053929
 C         2.003886        -1.295328        -0.829247
 C         3.217337        -1.388609        -0.017369
 O         3.961634        -2.583755        -0.003665
 C         3.738009         0.025971         0.376263
 O         3.476161         1.228814        -0.397376
 C         2.068419         1.391545        -0.413278
 C         2.585190        -0.506141         1.099508
 H        -0.073824         0.941595         1.025875
 H        -0.750892         0.327658        -0.508617
 H        -0.366734        -0.821108         0.767420
 H         1.224160        -2.142479        -0.697576
 H         2.197455        -1.040869        -1.882197
 H         4.923793        -2.474822        -0.295267
 H         4.695938        -0.016059         0.805014
 H         2.024904         2.358305         0.300706
 H         1.733920         1.699830        -1.363592
 H         2.401239        -0.483345         2.177588
