19
Iteration:  3758
 C         0.060681         0.141613         0.339658
 C         1.500567         0.013777         0.029283
 C         2.028733        -1.228253        -0.853253
 C         3.195073        -1.369884         0.064506
 O         4.131046        -2.395413        -0.107834
 C         3.692657        -0.065577         0.466927
 O         3.502050         1.080663        -0.399421
 C         2.148978         1.317223        -0.468198
 C         2.430057        -0.410240         1.178316
 H        -0.081121         0.876830         1.230771
 H        -0.630975         0.607011        -0.347796
 H        -0.308488        -0.816493         0.483014
 H         1.287989        -2.039622        -0.688230
 H         2.078658        -1.106526        -1.954495
 H         3.602808        -3.214025        -0.340912
 H         4.689178         0.105442         1.020491
 H         1.809486         2.243046         0.056063
 H         1.851928         1.384908        -1.644018
 H         2.039662        -0.592659         2.169856
