19
Iteration:  3350charge 0 multiplicity 1
 C         0.040828         0.236672         0.316579
 C         1.503217        -0.054892         0.037640
 C         1.881247        -1.289016        -0.803146
 C         3.245909        -1.363659         0.013945
 O         4.144032        -2.375983        -0.186679
 C         3.758186         0.013485         0.475329
 O         3.534249         1.159447        -0.261111
 C         2.142893         1.214038        -0.617440
 C         2.441999        -0.450242         1.218036
 H        -0.263796         1.087208         1.077492
 H        -0.296493         0.420096        -0.641522
 H        -0.434365        -0.698928         0.680849
 H         1.215639        -2.191658        -0.349224
 H         1.883368        -1.330377        -1.956073
 H         3.626542        -3.255368        -0.218017
 H         4.515759         0.053927         1.177603
 H         1.724754         2.120991        -0.061012
 H         1.899334         1.233747        -1.607927
 H         2.257207        -0.451172         2.324494
