19
Iteration:  2923
 C         0.031917         0.159826         0.478125
 C         1.433782        -0.036000        -0.037366
 C         1.930445        -1.185513        -0.901423
 C         3.233588        -1.345623        -0.085703
 O         4.078297        -2.386303        -0.003840
 C         3.762718        -0.003545         0.430846
 O         3.512310         1.195084        -0.253293
 C         2.162581         1.192540        -0.633277
 C         2.487973        -0.488190         1.118653
 H        -0.046234         1.123825         1.112236
 H        -0.643126         0.258176        -0.259926
 H        -0.323602        -0.750662         1.031282
 H         1.325863        -2.179070        -0.887558
 H         2.039637        -0.933564        -1.884778
 H         3.835191        -3.263792         0.453604
 H         4.758073         0.059322         0.975899
 H         1.765093         2.177689        -0.369775
 H         2.153801         1.140459        -1.737348
 H         2.312644        -0.892190         2.196940
