19
Iteration:  4600charge 0 multiplicity 1
 C        -0.009596        -0.078168         0.357206
 C         1.546792         0.014433         0.100462
 C         2.016804        -1.012888        -1.029743
 C         3.161677        -1.382370        -0.038171
 O         3.935224        -2.581230         0.105871
 C         3.837787        -0.012901         0.299131
 O         3.501526         1.234713        -0.441923
 C         2.083378         1.338050        -0.358928
 C         2.604809        -0.442922         1.129712
 H        -0.357633         0.596213         1.193621
 H        -0.418865         0.296798        -0.556214
 H        -0.345764        -1.026356         0.554642
 H         1.389378        -1.831512        -1.197097
 H         2.490037        -0.725806        -2.019441
 H         3.496933        -3.216842         0.789646
 H         4.830645         0.111088         0.786450
 H         1.877948         2.125330         0.453113
 H         1.789586         1.663009        -1.370044
 H         2.500205        -0.332613         2.178386
