19
Iteration:  4704charge 0 multiplicity 1
 C         0.027664         0.016211         0.383540
 C         1.500772        -0.030412        -0.018638
 C         1.928023        -1.117890        -1.003101
 C         3.254857        -1.341915        -0.095802
 O         3.937028        -2.489411         0.147086
 C         3.768615         0.019504         0.437371
 O         3.552422         1.260929        -0.295491
 C         2.171910         1.325365        -0.439542
 C         2.542489        -0.522144         1.055388
 H        -0.084430         0.642297         1.240459
 H        -0.629743         0.185370        -0.511673
 H        -0.184030        -1.070854         0.648962
 H         1.346374        -2.083163        -0.728431
 H         1.839854        -0.907163        -2.073920
 H         3.869818        -3.092252        -0.574118
 H         4.791359        -0.091596         0.895832
 H         1.703311         2.194346         0.100756
 H         1.921927         1.679502        -1.585942
 H         2.405375        -0.782844         2.096212
