19
Iteration:  3397
 C         0.075634         0.060324         0.363674
 C         1.527390         0.023641         0.026917
 C         1.932935        -1.183472        -0.884657
 C         3.160202        -1.358090        -0.077669
 O         4.014194        -2.472502         0.034833
 C         3.761817         0.042589         0.420028
 O         3.514127         1.237669        -0.255021
 C         2.148035         1.271673        -0.527727
 C         2.547466        -0.478424         1.049283
 H        -0.191090         0.834414         1.032934
 H        -0.529203         0.094595        -0.596363
 H        -0.095673        -0.829292         0.882554
 H         1.279562        -2.107633        -0.832486
 H         2.147763        -0.927197        -1.925450
 H         3.492690        -3.281008         0.134463
 H         4.726107        -0.225656         0.917628
 H         1.665931         2.183215        -0.096283
 H         2.008164         1.265382        -1.564076
 H         2.345340        -0.584163         2.091296
