19
Iteration:   519
 C         0.004832         0.050875         0.305838
 C         1.498538        -0.010334         0.010206
 C         2.238357        -1.087315        -1.011264
 C         3.287488        -1.291279         0.033523
 O         3.685842        -2.614755         0.029454
 C         3.774056         0.055374         0.419572
 O         3.526689         1.135728        -0.401546
 C         2.089700         1.345738        -0.363884
 C         2.572069        -0.490582         1.096047
 H        -0.221494         0.729435         1.051989
 H        -0.706525         0.314722        -0.460125
 H        -0.418423        -0.994880         0.595052
 H         1.603791        -1.974819        -1.202572
 H         2.632136        -0.671957        -1.940849
 H         4.500209        -2.768547         0.533300
 H         4.580355         0.189597         1.085521
 H         1.782980         2.034604         0.465587
 H         1.913310         1.783626        -1.285295
 H         2.483317        -0.657472         2.180664
