19
Iteration:  1091
 C         0.044856        -0.071053         0.283348
 C         1.532541         0.052893         0.009444
 C         2.192999        -0.939946        -1.112877
 C         3.170701        -1.342845         0.013597
 O         3.808718        -2.598650         0.219677
 C         3.753645        -0.047218         0.411300
 O         3.520623         1.122038        -0.436062
 C         2.092312         1.436633        -0.264827
 C         2.539253        -0.499552         1.078646
 H        -0.318839         0.579396         0.998140
 H        -0.533682         0.187255        -0.621850
 H        -0.151751        -1.165327         0.517359
 H         1.463794        -1.734170        -1.358998
 H         2.604562        -0.416854        -1.939521
 H         3.890245        -3.038795        -0.625837
 H         4.673104         0.015673         0.981534
 H         2.062346         2.137060         0.559816
 H         1.740193         1.860235        -1.267031
 H         2.518664        -0.674330         2.158972
