19
Iteration:  1939charge 0 multiplicity 1
 C        -0.098296         0.252025         0.335874
 C         1.420802        -0.098479         0.088659
 C         1.983439        -1.210445        -0.863044
 C         3.231616        -1.354717         0.043977
 O         4.044618        -2.450212        -0.164995
 C         3.739437        -0.027405         0.484371
 O         3.531196         1.190599        -0.184285
 C         2.209714         1.190015        -0.650838
 C         2.491746        -0.514680         1.148919
 H        -0.230079         1.136782         1.081630
 H        -0.439848         0.646439        -0.706290
 H        -0.556309        -0.637696         0.601614
 H         1.489025        -2.231962        -0.813034
 H         2.041683        -0.838063        -1.971722
 H         4.996612        -2.180624         0.011659
 H         4.610211        -0.065511         1.175482
 H         1.823481         2.151496        -0.305904
 H         1.906614         1.122747        -1.836354
 H         2.539897        -0.596384         2.257740
