19
Iteration:  3198
 C        -0.000535         0.050258         0.425018
 C         1.490066        -0.031375         0.008049
 C         2.076649        -1.094680        -0.993343
 C         3.206135        -1.378609         0.003001
 O         4.023468        -2.509703         0.093944
 C         3.789376         0.001101         0.346285
 O         3.516979         1.155794        -0.448595
 C         2.028004         1.345531        -0.411540
 C         2.572485        -0.474235         1.068090
 H        -0.050516         0.905310         1.198777
 H        -0.682771         0.229196        -0.328569
 H        -0.322667        -0.898565         0.913179
 H         1.275916        -1.875560        -1.180145
 H         2.465156        -0.733387        -1.873180
 H         3.487442        -3.253248         0.525190
 H         4.694027         0.095048         1.062170
 H         1.708856         2.153375         0.219358
 H         1.732587         1.608161        -1.408509
 H         2.245416        -0.391195         2.148150
