19
Iteration:   390charge 0 multiplicity 1
 C        -0.102798         0.006806         0.216172
 C         1.442282        -0.035450         0.009067
 C         2.008893        -1.057754        -0.996073
 C         3.239573        -1.322665        -0.044379
 O         3.885157        -2.551585         0.156840
 C         3.837866         0.008313         0.405626
 O         3.591625         1.149319        -0.370128
 C         2.206904         1.357232        -0.311444
 C         2.532664        -0.542232         1.115422
 H        -0.315333         0.652281         1.116970
 H        -0.487221         0.591556        -0.724411
 H        -0.666322        -0.825341         0.364087
 H         1.333544        -1.889278        -0.980980
 H         2.033751        -0.731155        -2.063108
 H         4.774778        -2.467960        -0.341694
 H         4.755569         0.088427         0.957223
 H         1.937870         2.111170         0.422525
 H         1.697993         1.703964        -1.285041
 H         2.461214        -0.582354         2.176670
