19
Iteration:  4351charge 0 multiplicity 1
 C        -0.003212        -0.023744         0.388673
 C         1.531819         0.031728         0.080028
 C         1.953350        -1.097539        -0.946318
 C         3.219709        -1.314034        -0.115111
 O         3.912104        -2.504215         0.074676
 C         3.758258        -0.009422         0.402218
 O         3.582915         1.099398        -0.445735
 C         2.094966         1.352175        -0.448460
 C         2.583706        -0.460984         1.097274
 H        -0.248293         0.691277         1.171400
 H        -0.574421         0.054355        -0.541177
 H        -0.469855        -0.889450         0.945792
 H         1.321636        -1.967495        -0.716417
 H         1.903618        -0.766155        -2.035300
 H         4.719166        -2.469790         0.660515
 H         4.749321         0.118242         0.844644
 H         1.896244         2.219726         0.320313
 H         1.747568         1.730285        -1.444223
 H         2.510578        -0.791001         2.179458
