19
Iteration:  1359charge 0 multiplicity 1
 C         0.024077         0.220679         0.214559
 C         1.481341        -0.033456         0.034671
 C         1.822478        -1.301135        -0.847955
 C         3.137695        -1.369777        -0.020203
 O         4.062210        -2.391447        -0.130710
 C         3.723070        -0.040801         0.432731
 O         3.605375         1.218397        -0.121870
 C         2.214811         1.239379        -0.512715
 C         2.507227        -0.554221         1.157055
 H        -0.354441         0.907750         1.029053
 H        -0.378199         0.609864        -0.719827
 H        -0.465435        -0.661542         0.472437
 H         1.212476        -2.174131        -0.468199
 H         1.724820        -1.267035        -1.934211
 H         4.913566        -2.017751        -0.252350
 H         4.674235        -0.172258         0.985816
 H         1.779509         2.076207        -0.065484
 H         2.171868         1.408333        -1.676459
 H         2.253590        -0.674837         2.135491
