19
Iteration:  3004charge 0 multiplicity 1
 C        -0.021486        -0.009111         0.282604
 C         1.497124        -0.013973         0.120433
 C         2.041943        -1.113649        -0.814851
 C         3.264295        -1.287139         0.061403
 O         3.952439        -2.496649        -0.053054
 C         3.820129         0.087767         0.414000
 O         3.562306         1.112704        -0.435040
 C         2.039273         1.303803        -0.505281
 C         2.536525        -0.460002         1.180320
 H        -0.318521         0.489946         1.157526
 H        -0.465650         0.548204        -0.718133
 H        -0.348145        -1.023566         0.482681
 H         1.331031        -1.899133        -0.753199
 H         2.245036        -0.835783        -1.947935
 H         3.298592        -3.262701         0.014461
 H         4.799850         0.161767         0.836580
 H         1.974646         2.141238         0.195060
 H         1.796275         1.519689        -1.573719
 H         2.462134        -0.592685         2.209059
