19
Iteration:  2234
 C         0.074537        -0.107313         0.394070
 C         1.543411        -0.010612        -0.067822
 C         2.199818        -1.035653        -1.098245
 C         3.181264        -1.356837        -0.066428
 O         3.761906        -2.576593         0.277868
 C         3.820600         0.029962         0.373735
 O         3.509667         1.221613        -0.310967
 C         2.039562         1.401667        -0.338853
 C         2.504400        -0.475830         0.922818
 H        -0.002662         0.691531         1.160373
 H        -0.638423         0.020796        -0.444297
 H        -0.127540        -1.041197         0.842594
 H         1.490871        -1.945577        -1.226542
 H         2.507383        -0.679584        -2.113282
 H         4.409759        -2.742102        -0.376800
 H         4.916676        -0.097475         0.811681
 H         1.787269         1.975530         0.524259
 H         1.853354         2.122436        -1.081431
 H         2.224640        -0.774618         1.963794
