19
Iteration:  2845charge 0 multiplicity 1
 C         0.037790        -0.154449         0.355412
 C         1.470058         0.072343         0.043793
 C         2.051981        -0.993666        -1.123281
 C         3.160542        -1.333445         0.014817
 O         3.965509        -2.512014         0.317000
 C         3.750126         0.007314         0.308041
 O         3.500786         1.108247        -0.599093
 C         2.131240         1.415744        -0.260052
 C         2.596803        -0.489468         1.100536
 H        -0.241897         0.647179         1.178597
 H        -0.513459         0.124759        -0.424669
 H        -0.232446        -1.159209         0.718879
 H         1.285260        -1.838043        -1.316955
 H         2.347752        -0.591231        -2.008753
 H         3.548859        -3.119591        -0.356218
 H         4.689317        -0.018565         0.789848
 H         2.240310         2.019276         0.596689
 H         1.696538         1.981679        -1.090188
 H         2.476975        -0.683367         2.112448
