19
Iteration:  3231
 C         0.139902        -0.321633         0.418749
 C         1.546656         0.038990         0.022757
 C         2.025808        -1.034951        -1.032208
 C         3.226241        -1.323216        -0.060991
 O         3.707669        -2.487533         0.182019
 C         3.836966         0.029651         0.335301
 O         3.563702         1.167053        -0.474915
 C         2.083072         1.477051        -0.385408
 C         2.619051        -0.404077         1.039512
 H        -0.264165         0.417663         1.264229
 H        -0.489802        -0.290543        -0.412228
 H         0.229351        -1.373256         0.781946
 H         1.212630        -1.859922        -1.082243
 H         2.213229        -0.856956        -2.022782
 H         3.319570        -2.683823         1.026396
 H         4.785144        -0.005820         0.992721
 H         1.953208         2.344013         0.282037
 H         1.803151         1.700867        -1.390192
 H         2.302526        -0.605923         2.141404
