19
Iteration:  4705charge 0 multiplicity 1
 C         0.019328         0.004274         0.379586
 C         1.496019        -0.024666        -0.020351
 C         1.930364        -1.124272        -0.998918
 C         3.257503        -1.342872        -0.101903
 O         3.931031        -2.482386         0.152207
 C         3.774919         0.022416         0.439054
 O         3.554683         1.258870        -0.298470
 C         2.173146         1.333709        -0.432174
 C         2.546198        -0.529384         1.047846
 H        -0.093724         0.659604         1.267807
 H        -0.649482         0.214395        -0.488310
 H        -0.161577        -1.039389         0.651203
 H         1.389315        -2.054444        -0.727188
 H         1.854618        -0.935049        -2.078980
 H         3.839155        -3.115370        -0.589217
 H         4.799668        -0.103222         0.896620
 H         1.705184         2.177323         0.118607
 H         1.923523         1.663519        -1.583425
 H         2.394965        -0.759194         2.079412
