19
Iteration:  4958
 C         0.030156         0.006320         0.382652
 C         1.515872        -0.000067        -0.031716
 C         2.076675        -1.084587        -1.044656
 C         3.240418        -1.349330        -0.012116
 O         3.948130        -2.584516         0.101890
 C         3.789599         0.054390         0.389708
 O         3.503322         1.177817        -0.361836
 C         2.084192         1.351920        -0.374262
 C         2.519105        -0.459295         1.015740
 H        -0.334417         0.853041         1.056182
 H        -0.696545        -0.066614        -0.366438
 H        -0.178394        -0.781231         1.042143
 H         1.439610        -1.903046        -1.004258
 H         2.419421        -0.726789        -1.993573
 H         3.350405        -3.337732         0.402343
 H         4.853422         0.059295         0.766346
 H         1.848718         2.007985         0.459148
 H         1.728201         1.833792        -1.348623
 H         2.417487        -0.469411         2.192294
