19
Iteration:  4981
 C         0.067589        -0.095601         0.403358
 C         1.524017        -0.003025        -0.024536
 C         2.028224        -1.136429        -0.979732
 C         3.180286        -1.358281         0.003208
 O         3.944197        -2.477786        -0.005320
 C         3.708664         0.004329         0.452600
 O         3.576410         1.177232        -0.405505
 C         2.162498         1.465818        -0.437839
 C         2.495663        -0.456441         1.097649
 H        -0.226496         0.678511         1.206796
 H        -0.733342        -0.037921        -0.309135
 H        -0.104171        -0.943443         0.941741
 H         1.428964        -2.008068        -0.866018
 H         2.504386        -0.824062        -1.928360
 H         3.459666        -3.255601         0.370996
 H         4.540033         0.069960         1.153819
 H         1.990204         2.351074         0.138552
 H         1.825472         1.540687        -1.559977
 H         2.126913        -0.607273         2.195686
