19
Iteration:   576charge 0 multiplicity 1
 C        -0.047673         0.009326         0.284995
 C         1.523066         0.042830        -0.043352
 C         1.996010        -1.184038        -0.996311
 C         3.108921        -1.380100         0.013242
 O         3.918189        -2.545412         0.105115
 C         3.786218        -0.076351         0.395519
 O         3.637224         1.203713        -0.291909
 C         2.162999         1.420365        -0.367264
 C         2.502956        -0.465605         1.065788
 H        -0.281551         0.644004         1.152360
 H        -0.567859         0.446106        -0.641727
 H        -0.416885        -0.917608         0.589927
 H         1.249221        -1.919067        -1.027348
 H         2.380537        -0.902622        -2.036812
 H         4.708796        -2.413067        -0.499774
 H         4.763734        -0.262792         0.886046
 H         1.817102         2.162631         0.409464
 H         2.053893         1.830740        -1.273475
 H         2.154202        -0.408566         2.160816
