19
Iteration:  2481charge 0 multiplicity 1
 C         0.131597        -0.075974         0.443525
 C         1.509446         0.046164        -0.058739
 C         2.101107        -1.097826        -1.117534
 C         3.154975        -1.343306        -0.038012
 O         3.901243        -2.543907         0.142679
 C         3.791132        -0.044097         0.365846
 O         3.539912         1.203812        -0.395547
 C         2.061813         1.445407        -0.368441
 C         2.483122        -0.477402         1.076214
 H        -0.096625         0.745912         1.227223
 H        -0.581648         0.054834        -0.474473
 H         0.012138        -1.031032         0.898445
 H         1.409106        -2.069977        -1.208764
 H         2.301587        -0.724219        -2.172019
 H         3.750285        -2.906065         1.047553
 H         4.794055        -0.001888         0.936301
 H         1.679547         2.173965         0.442840
 H         1.793702         1.679298        -1.399216
 H         2.221188        -0.717723         2.063320
