19
Iteration:  4415
 C         0.081489        -0.100048         0.471293
 C         1.526977         0.032760         0.033372
 C         2.103955        -1.066674        -0.962506
 C         3.217590        -1.336350         0.063474
 O         3.772573        -2.607170         0.019771
 C         3.786479         0.078250         0.365302
 O         3.563135         1.152388        -0.519269
 C         2.069031         1.377768        -0.438356
 C         2.532782        -0.408508         1.038427
 H        -0.062969         0.491357         1.488717
 H        -0.662294         0.181755        -0.213676
 H        -0.026288        -1.099727         0.863097
 H         1.421701        -1.874801        -0.984715
 H         2.371427        -0.782698        -2.012378
 H         4.306563        -2.732206         0.885056
 H         4.665829         0.105552         1.054173
 H         2.031537         2.155411         0.324886
 H         1.574511         1.723694        -1.457443
 H         2.322944        -0.625148         2.133091
