19
Iteration:    88
 C        -0.050167         0.118417         0.291090
 C         1.451844         0.016671        -0.030615
 C         1.953102        -1.213122        -0.894520
 C         3.231705        -1.290185        -0.038881
 O         3.955909        -2.471819         0.048571
 C         3.786078        -0.042453         0.499243
 O         3.637929         1.135704        -0.305394
 C         2.183541         1.342141        -0.465263
 C         2.426516        -0.490906         1.054347
 H        -0.256414         0.690271         1.195357
 H        -0.561276         0.497991        -0.588303
 H        -0.409348        -0.868383         0.559652
 H         1.471514        -2.102421        -0.601674
 H         1.964220        -1.138957        -2.013283
 H         4.826074        -2.435815        -0.449517
 H         4.693983        -0.253429         1.141972
 H         1.854297         2.136415         0.193424
 H         1.959519         1.609637        -1.451264
 H         2.303037        -0.847601         2.096569
