19
Iteration:  1334
 C        -0.031809         0.032326         0.274280
 C         1.475038        -0.006294         0.069830
 C         1.936762        -1.119281        -0.910674
 C         3.204581        -1.320241        -0.084638
 O         3.901457        -2.508747        -0.036861
 C         3.774624        -0.039876         0.436053
 O         3.620961         1.217431        -0.158455
 C         2.181512         1.299041        -0.542973
 C         2.557077        -0.490109         1.130951
 H        -0.328647         0.731647         1.118783
 H        -0.531128         0.391972        -0.599503
 H        -0.552567        -0.939486         0.551523
 H         1.266222        -2.098049        -0.740168
 H         1.961427        -0.905497        -1.959227
 H         4.853213        -2.310726        -0.149776
 H         4.639260        -0.120123         1.063012
 H         1.769910         2.265499        -0.245151
 H         2.150697         1.339291        -1.639513
 H         2.378574        -0.765092         2.213927
