19
Iteration:   667charge 0 multiplicity 1
 C         0.063938        -0.057281         0.258659
 C         1.491722         0.088602        -0.103223
 C         1.958024        -1.145105        -0.978646
 C         3.158313        -1.255414        -0.058122
 O         3.849879        -2.474452         0.114111
 C         3.709219        -0.039574         0.477182
 O         3.644205         1.086067        -0.363809
 C         2.271516         1.422980        -0.342076
 C         2.464649        -0.508662         1.097444
 H        -0.280374         0.429089         1.269242
 H        -0.727930         0.233534        -0.441874
 H        -0.262775        -1.041521         0.643129
 H         1.282202        -2.046512        -0.734543
 H         2.092568        -0.969487        -2.068851
 H         4.751661        -2.344762        -0.126549
 H         4.665725        -0.005992         0.966258
 H         2.064804         2.193475         0.456560
 H         1.987129         1.745308        -1.280956
 H         2.250188        -0.850076         2.052213
