19
Iteration:  4614
 C        -0.002903        -0.020036         0.311474
 C         1.510335         0.001866         0.039062
 C         2.042593        -1.155513        -0.933772
 C         3.119149        -1.402547         0.067858
 O         3.966446        -2.507661         0.006295
 C         3.777874         0.000316         0.333713
 O         3.555647         1.179709        -0.420212
 C         2.107059         1.430686        -0.320238
 C         2.617680        -0.456980         1.085871
 H        -0.352640         0.670033         1.045331
 H        -0.622507         0.306638        -0.603635
 H        -0.367513        -1.111210         0.605844
 H         1.134509        -1.877460        -1.086928
 H         2.320238        -0.666996        -1.857344
 H         3.985520        -2.883174         0.854869
 H         4.790793        -0.194789         0.524748
 H         1.797855         2.303249         0.355953
 H         1.592205         1.720841        -1.430023
 H         2.451835        -0.599321         2.159084
