19
Iteration:  4205charge 0 multiplicity 1
 C         0.013753        -0.131902         0.422382
 C         1.457065         0.053504         0.057655
 C         2.117433        -0.959577        -1.028992
 C         3.191732        -1.314744         0.018062
 O         3.801787        -2.562651         0.184336
 C         3.793171         0.013800         0.396768
 O         3.509493         1.056106        -0.541309
 C         2.088961         1.382926        -0.409324
 C         2.633688        -0.466069         1.088613
 H        -0.110739         0.670980         1.292376
 H        -0.730900         0.077063        -0.284651
 H        -0.072023        -1.034596         0.932662
 H         1.480686        -1.657532        -1.398550
 H         2.550033        -0.270595        -1.871548
 H         4.451488        -2.632294        -0.509939
 H         4.781822         0.054939         0.976973
 H         1.814505         2.181081         0.308351
 H         1.779310         1.584311        -1.470508
 H         2.654645        -0.617290         2.151210
