19
Iteration:  2101charge 0 multiplicity 1
 C         0.025223        -0.087051         0.328404
 C         1.499190         0.018575        -0.010303
 C         2.060218        -0.983314        -0.982679
 C         3.168151        -1.330844        -0.044459
 O         3.855853        -2.530542         0.201051
 C         3.802064         0.015803         0.347313
 O         3.542596         1.188173        -0.350511
 C         2.113203         1.314105        -0.413857
 C         2.577676        -0.523404         1.097187
 H        -0.338568         0.608595         1.211840
 H        -0.555723         0.212900        -0.525179
 H        -0.228495        -1.083140         0.598963
 H         1.233286        -1.843802        -1.107577
 H         2.351755        -0.644997        -1.949671
 H         4.455259        -2.602515        -0.521795
 H         4.717861        -0.096242         0.780040
 H         1.768508         2.205851         0.276271
 H         1.873478         1.546517        -1.417801
 H         2.534497        -0.717277         2.151300
