19
Iteration:  4714
 C        -0.021847        -0.057324         0.370503
 C         1.484926         0.041028        -0.035111
 C         2.006581        -1.180545        -0.953502
 C         3.227161        -1.261446        -0.147307
 O         3.890964        -2.468790         0.179598
 C         3.830299         0.026883         0.414252
 O         3.596756         1.218293        -0.310151
 C         2.128786         1.403500        -0.383136
 C         2.565836        -0.571633         0.964754
 H        -0.204558         0.561255         1.194750
 H        -0.793372         0.437239        -0.278712
 H        -0.274738        -1.119469         0.791409
 H         1.348566        -2.169546        -0.710312
 H         2.158722        -1.154068        -2.041003
 H         3.617956        -3.132527        -0.499693
 H         4.815748        -0.040108         0.955225
 H         1.804192         2.146370         0.397092
 H         1.902530         1.532325        -1.540623
 H         2.305593        -0.654967         2.014331
