19
Iteration:  1299
 C         0.091298        -0.041678         0.398988
 C         1.542887        -0.047809        -0.065053
 C         2.228391        -1.041435        -1.124727
 C         3.187092        -1.346896        -0.020594
 O         3.751871        -2.626034         0.105872
 C         3.726065         0.019213         0.473856
 O         3.538924         1.166109        -0.385924
 C         2.044668         1.437572        -0.337386
 C         2.508324        -0.425490         1.088725
 H         0.050169         0.787239         1.081903
 H        -0.623001         0.219714        -0.459565
 H        -0.208238        -1.076789         0.904047
 H         1.527842        -1.947935        -1.332446
 H         2.603220        -0.590674        -2.087296
 H         4.668753        -2.760827        -0.230756
 H         4.659275         0.081482         1.078932
 H         1.923272         2.088185         0.613567
 H         1.773419         1.790926        -1.275067
 H         2.156982        -0.683819         2.177305
