19
Iteration:  3226
 C         0.118657        -0.270245         0.444856
 C         1.549994         0.035697         0.047153
 C         2.015473        -1.052879        -1.032097
 C         3.200233        -1.272520        -0.095717
 O         3.757195        -2.500256         0.177553
 C         3.844483         0.014672         0.350882
 O         3.541476         1.166569        -0.484137
 C         2.119204         1.449332        -0.418155
 C         2.614492        -0.444528         1.103859
 H        -0.243369         0.476063         1.190304
 H        -0.585339        -0.274284        -0.477679
 H         0.164972        -1.338018         0.769046
 H         1.307946        -1.901694        -1.165701
 H         2.317201        -0.761208        -2.156915
 H         3.299304        -2.684811         1.060721
 H         4.698565         0.056432         0.965294
 H         1.830849         2.342082         0.277081
 H         1.792193         1.786399        -1.454428
 H         2.229854        -0.677781         2.039317
