19
Iteration:  2150charge 0 multiplicity 1
 C         0.075155         0.270327         0.272181
 C         1.468717        -0.112004        -0.022559
 C         1.986862        -1.274007        -0.855518
 C         3.240699        -1.380371         0.044020
 O         4.116474        -2.407086        -0.138594
 C         3.750843        -0.038574         0.487827
 O         3.521366         1.116235        -0.366738
 C         2.087861         1.341960        -0.412760
 C         2.338025        -0.569721         1.142460
 H         0.062788         1.043290         0.952154
 H        -0.625772         0.656964        -0.622170
 H        -0.458471        -0.551488         0.909165
 H         1.387530        -2.047679        -0.629813
 H         1.916117        -1.108256        -1.984983
 H         5.002497        -2.116065         0.293585
 H         4.716061         0.003108         1.182577
 H         1.672936         2.087496         0.406995
 H         1.881985         1.710725        -1.519977
 H         2.002066        -0.690473         2.177241
