19
Iteration:  2957charge 0 multiplicity 1
 C         0.094260         0.242222         0.481734
 C         1.438742        -0.045623        -0.115656
 C         1.877257        -1.325659        -0.882233
 C         3.160126        -1.362327        -0.091540
 O         4.173429        -2.320361         0.037992
 C         3.696579        -0.062184         0.404438
 O         3.503593         1.267661        -0.182807
 C         2.182927         1.212557        -0.593294
 C         2.482397        -0.551775         1.023395
 H         0.164177         1.212467         1.057749
 H        -0.613442         0.400806        -0.306694
 H        -0.179042        -0.536072         1.245404
 H         1.287821        -2.295988        -0.629998
 H         1.902714        -1.189102        -1.932115
 H         3.730494        -3.215389         0.069931
 H         4.675639        -0.026496         0.929071
 H         1.697050         2.140345        -0.267359
 H         2.240020         1.169412        -1.704473
 H         2.219515        -0.898768         2.090330
