19
Iteration:  3854
 C         0.044678        -0.190464         0.394154
 C         1.539431        -0.004849         0.041057
 C         2.093773        -1.023318        -0.992066
 C         3.196991        -1.298736         0.022689
 O         3.769031        -2.590066         0.085604
 C         3.812949         0.054051         0.301526
 O         3.529767         1.134220        -0.480383
 C         2.102858         1.470440        -0.420225
 C         2.617806        -0.416592         1.144075
 H        -0.320150         0.635242         1.177712
 H        -0.683432        -0.049726        -0.359060
 H        -0.041320        -1.220757         0.702786
 H         1.358320        -1.798109        -1.062725
 H         2.531364        -0.531018        -2.026097
 H         3.749988        -3.085766         0.890041
 H         4.804304         0.137546         0.861958
 H         1.827521         2.127325         0.428127
 H         1.778267         1.735195        -1.443368
 H         2.449359        -0.548737         2.200035
