19
Iteration:  4663
 C        -0.045946         0.142113         0.385856
 C         1.468499        -0.039592        -0.008859
 C         2.053346        -1.183880        -0.916260
 C         3.221370        -1.300376         0.021551
 O         3.968248        -2.542782        -0.064003
 C         3.758515        -0.014442         0.429514
 O         3.536059         1.165407        -0.334419
 C         2.126705         1.299828        -0.524913
 C         2.498792        -0.523852         1.201196
 H        -0.261169         1.125070         0.994795
 H        -0.666327         0.338813        -0.484153
 H        -0.411904        -0.682209         0.903427
 H         1.471232        -2.033080        -0.886044
 H         2.263164        -0.842113        -1.955646
 H         4.910859        -2.159000        -0.249081
 H         4.700558         0.098751         1.054015
 H         1.759881         2.039836         0.145975
 H         1.848151         1.554631        -1.491573
 H         2.476656        -0.773982         2.241139
