19
Iteration:  3580
 C         0.071526         0.107527         0.321105
 C         1.465148        -0.016921        -0.049057
 C         1.950651        -1.241070        -0.878941
 C         3.219820        -1.306927        -0.005765
 O         4.044984        -2.452319        -0.018057
 C         3.693707         0.042380         0.441856
 O         3.547372         1.147167        -0.378283
 C         2.157185         1.343892        -0.442554
 C         2.518774        -0.493467         1.112439
 H        -0.171162         0.912899         1.163886
 H        -0.521499         0.311247        -0.499712
 H        -0.337244        -0.742235         0.853422
 H         1.443501        -2.076775        -0.444568
 H         2.006345        -1.253682        -1.969806
 H         3.549547        -3.273862         0.274517
 H         4.704133         0.091996         0.961686
 H         1.782942         2.047820         0.319633
 H         1.784757         1.514527        -1.547669
 H         2.505406        -0.674369         2.189002
