19
Iteration:  3667
 C         0.001190        -0.079359         0.501715
 C         1.528577         0.012968        -0.115657
 C         2.068884        -1.153628        -1.017081
 C         3.215260        -1.365905        -0.089842
 O         3.875525        -2.487290         0.123507
 C         3.813599        -0.001819         0.421621
 O         3.571015         1.200751        -0.406246
 C         2.077484         1.414438        -0.392925
 C         2.523906        -0.452488         1.013833
 H        -0.094134         0.853494         1.213251
 H        -0.728486         0.062427        -0.224236
 H        -0.106276        -1.101265         0.923600
 H         1.600077        -2.112330        -0.993181
 H         2.415216        -0.782340        -2.011299
 H         3.450407        -3.117054         0.677473
 H         4.715899         0.012919         1.000763
 H         1.947341         2.076961         0.440107
 H         1.782061         1.878655        -1.497040
 H         2.266908        -0.479990         2.081848
