19
Iteration:  4751charge 0 multiplicity 1
 C         0.087773        -0.082488         0.315767
 C         1.559593         0.031033         0.004592
 C         2.062159        -1.009903        -1.016383
 C         3.181324        -1.390233         0.020089
 O         3.939138        -2.533963         0.114999
 C         3.781904         0.042139         0.403142
 O         3.494715         1.137760        -0.473997
 C         2.050886         1.367080        -0.316854
 C         2.528381        -0.504859         1.100863
 H        -0.046307         0.550926         1.310618
 H        -0.432867         0.379300        -0.512480
 H        -0.174081        -1.044470         0.468352
 H         1.288898        -1.635938        -1.241133
 H         2.570927        -0.531823        -1.889945
 H         3.269469        -3.336095         0.230268
 H         4.735663         0.046579         0.872961
 H         1.977816         2.158865         0.425142
 H         1.601341         1.817134        -1.284100
 H         2.384019        -0.308396         2.183374
