19
Iteration:  3369charge 0 multiplicity 1
 C        -0.084367         0.160459         0.302902
 C         1.419616        -0.059044         0.089984
 C         1.979917        -1.189810        -0.755282
 C         3.223998        -1.282676        -0.024004
 O         4.046450        -2.414956        -0.172248
 C         3.773148         0.061540         0.511406
 O         3.568410         1.210185        -0.275862
 C         2.164189         1.170772        -0.621732
 C         2.557173        -0.526038         1.198710
 H        -0.125706         1.074792         0.990961
 H        -0.584893         0.449254        -0.647851
 H        -0.590762        -0.681657         0.926688
 H         1.501661        -2.188059        -0.559693
 H         2.232660        -1.050838        -1.862716
 H         3.452395        -3.223226        -0.091258
 H         4.762868        -0.224556         0.996338
 H         1.765242         2.160722        -0.526714
 H         2.124678         0.907139        -1.796051
 H         2.365395        -0.765251         2.274648
