19
Iteration:  1054
 C         0.044825        -0.115389         0.323043
 C         1.492852         0.039432        -0.102156
 C         2.026960        -1.166668        -1.105099
 C         3.128291        -1.324544        -0.107158
 O         3.789284        -2.467945         0.250453
 C         3.782713        -0.016525         0.361488
 O         3.678585         1.232041        -0.226570
 C         2.213937         1.422674        -0.313844
 C         2.503826        -0.480124         0.998490
 H        -0.175622         0.536820         1.246939
 H        -0.695528        -0.078133        -0.624718
 H        -0.127154        -1.108300         0.691195
 H         1.397776        -2.015673        -1.072458
 H         2.047097        -0.831402        -2.239719
 H         3.986345        -2.931943        -0.627623
 H         4.610444        -0.186535         1.042288
 H         1.823462         2.003008         0.549254
 H         1.976608         1.994794        -1.132049
 H         2.489996        -0.711991         2.091462
