19
Iteration:  2298charge 0 multiplicity 1
 C         0.013618        -0.036128         0.182360
 C         1.523583        -0.044712         0.008013
 C         2.070777        -1.171454        -0.907551
 C         3.211361        -1.339231         0.023839
 O         3.862300        -2.570002         0.042183
 C         3.727146         0.057313         0.485964
 O         3.558471         1.202965        -0.367704
 C         2.113887         1.420943        -0.365824
 C         2.564669        -0.496163         1.115159
 H        -0.378152         0.606357         1.118750
 H        -0.398713         0.424644        -0.660113
 H        -0.455028        -0.977736         0.218452
 H         1.315565        -2.037633        -0.918697
 H         2.290205        -0.835525        -1.870627
 H         4.553717        -2.395172        -0.613556
 H         4.786074         0.103617         1.000935
 H         1.861414         2.104580         0.506386
 H         1.702207         1.768969        -1.332844
 H         2.426763        -0.387795         2.216647
