19
Iteration:  2258
 C         0.047845        -0.122546         0.302724
 C         1.511171         0.026392         0.032299
 C         2.028702        -0.927147        -1.171656
 C         3.202699        -1.383762        -0.126047
 O         3.904723        -2.466058         0.364717
 C         3.746463         0.025923         0.452267
 O         3.522364         1.115811        -0.486744
 C         2.145759         1.425527        -0.235647
 C         2.485991        -0.617377         0.992039
 H        -0.028398         0.550667         1.073981
 H        -0.729836         0.113225        -0.587680
 H        -0.156709        -1.152128         0.708422
 H         1.421157        -1.691643        -1.618383
 H         2.545359        -0.322434        -2.067661
 H         4.262166        -3.194437        -0.212125
 H         4.736388        -0.121560         1.051919
 H         2.022868         2.121900         0.584198
 H         1.797969         2.091102        -1.010286
 H         2.404990        -0.721147         2.039725
