19
Iteration:   857charge 0 multiplicity 1
 C        -0.008157        -0.123175         0.231376
 C         1.556333         0.070834        -0.004135
 C         2.002925        -1.047072        -1.086758
 C         3.013912        -1.423496         0.003934
 O         3.888839        -2.419131         0.220804
 C         3.747000        -0.053421         0.331441
 O         3.651266         1.149766        -0.330119
 C         2.187630         1.396225        -0.291420
 C         2.542922        -0.499031         1.125843
 H        -0.249551         0.393178         1.185356
 H        -0.500725         0.549916        -0.578860
 H        -0.263659        -1.185638         0.392288
 H         1.208225        -1.730093        -1.227852
 H         2.465587        -0.770895        -2.115907
 H         4.248898        -2.830684        -0.626083
 H         4.829074        -0.226887         0.520994
 H         1.937720         2.096314         0.595153
 H         1.970009         1.905139        -1.287932
 H         2.338620        -0.545830         2.136938
