19
Iteration:  1003charge 0 multiplicity 1
 C         0.023747         0.211632         0.298624
 C         1.498033         0.009739         0.034692
 C         2.112745        -1.101606        -0.905912
 C         3.263593        -1.398408         0.017211
 O         3.953642        -2.611149        -0.108394
 C         3.717413        -0.049554         0.536961
 O         3.522040         1.167896        -0.316733
 C         2.090093         1.332546        -0.467026
 C         2.439783        -0.558196         1.160706
 H        -0.076802         0.955005         1.017694
 H        -0.362945         0.681174        -0.638335
 H        -0.608941        -0.674346         0.403304
 H         1.369022        -1.931715        -0.980648
 H         2.323338        -0.712300        -1.892762
 H         4.880300        -2.440466        -0.021627
 H         4.690297        -0.065717         1.072543
 H         1.768295         2.315151        -0.007910
 H         1.705162         1.301053        -1.591655
 H         2.093629        -0.506106         2.297425
