19
Iteration:   271charge 0 multiplicity 1
 C        -0.081419         0.045892         0.217564
 C         1.505457         0.082903        -0.053077
 C         1.957402        -1.218192        -0.918523
 C         3.159967        -1.446018         0.015467
 O         3.989403        -2.494421         0.080277
 C         3.696745        -0.072348         0.320228
 O         3.638766         1.156132        -0.295201
 C         2.155074         1.423687        -0.297230
 C         2.527177        -0.477295         1.083381
 H        -0.314060         0.666793         1.214505
 H        -0.601777         0.559871        -0.688781
 H        -0.560182        -0.797138         0.499255
 H         1.131354        -1.885632        -0.900843
 H         2.283544        -1.051883        -1.996121
 H         4.843021        -2.230060        -0.288793
 H         4.710776        -0.241525         0.831925
 H         2.067503         2.146831         0.517823
 H         2.002347         2.015945        -1.361412
 H         2.479505        -0.646315         2.157387
