19
Iteration:  4649
 C         0.000639         0.115807         0.336903
 C         1.455847        -0.040507         0.066279
 C         1.971362        -1.170230        -0.888035
 C         3.273060        -1.313084        -0.052366
 O         3.979732        -2.490099        -0.076434
 C         3.734201         0.042152         0.538817
 O         3.597729         1.115374        -0.409406
 C         2.076360         1.283621        -0.382237
 C         2.496612        -0.474242         1.034636
 H        -0.107654         0.962420         1.027246
 H        -0.617773         0.267059        -0.617724
 H        -0.462469        -0.775455         0.956958
 H         1.377386        -2.175990        -0.735928
 H         2.059133        -1.017285        -1.958279
 H         4.817628        -2.508929         0.306186
 H         4.685819         0.023892         1.100498
 H         1.935124         2.164658         0.277637
 H         1.945447         1.513220        -1.577592
 H         2.169511        -0.588194         2.096068
