19
Iteration:  1309
 C         0.110309        -0.009528         0.355499
 C         1.535091         0.034171        -0.024565
 C         2.153551        -1.078586        -1.016435
 C         3.259749        -1.331045        -0.053820
 O         3.764592        -2.646024         0.038188
 C         3.723545         0.055095         0.537094
 O         3.537156         1.194531        -0.366369
 C         2.088151         1.377046        -0.389206
 C         2.484788        -0.508098         1.083552
 H        -0.012467         0.705565         1.140704
 H        -0.738452         0.200921        -0.416715
 H        -0.265781        -0.988370         0.887406
 H         1.429556        -1.920468        -1.122935
 H         2.567660        -0.747020        -2.040855
 H         4.746087        -2.564704        -0.216896
 H         4.679549         0.051243         1.120667
 H         1.613841         2.308523         0.148523
 H         1.873564         1.668690        -1.354227
 H         2.148982        -0.768882         2.155798
