19
Iteration:  2249charge 0 multiplicity 1
 C         0.086229        -0.095723         0.382484
 C         1.503216         0.037681        -0.095484
 C         2.100962        -0.988201        -1.231178
 C         3.216084        -1.343296        -0.091197
 O         3.836650        -2.522724         0.375392
 C         3.738232        -0.004803         0.378232
 O         3.515755         1.185594        -0.428113
 C         2.131942         1.443060        -0.216663
 C         2.520300        -0.602292         1.020564
 H        -0.167258         0.621752         1.122963
 H        -0.729446         0.046293        -0.473753
 H        -0.056621        -1.161888         0.821971
 H         1.449750        -1.735859        -1.525066
 H         2.582874        -0.472171        -2.143442
 H         4.299519        -3.052115        -0.345524
 H         4.577549         0.060004         1.001812
 H         1.909345         2.021666         0.748042
 H         1.701488         1.736231        -1.202050
 H         2.364973        -0.829962         2.039380
