19
Iteration:  2000
 C        -0.073413         0.045053         0.314530
 C         1.495598        -0.017361         0.020757
 C         2.002511        -1.145453        -1.007206
 C         3.189962        -1.360346        -0.022230
 O         3.978889        -2.514800         0.098114
 C         3.748587        -0.024554         0.394008
 O         3.585644         1.164146        -0.328815
 C         2.159180         1.360374        -0.395800
 C         2.523272        -0.460981         1.079818
 H        -0.310051         0.867592         1.057419
 H        -0.672019         0.326971        -0.473818
 H        -0.579768        -0.949102         0.587912
 H         1.279537        -2.016272        -0.819875
 H         2.067234        -1.088647        -2.116567
 H         4.908230        -2.295219        -0.257003
 H         4.820862        -0.086499         0.914959
 H         1.893786         2.270663         0.336355
 H         1.742415         1.736563        -1.340017
 H         2.408908        -0.725253         2.154552
