19
Iteration:  1256
 C         0.074663        -0.180575         0.263835
 C         1.533928         0.082034         0.093503
 C         1.969656        -0.980846        -1.160781
 C         3.197593        -1.289394        -0.109427
 O         3.828385        -2.533132         0.343042
 C         3.797140        -0.040836         0.383821
 O         3.550706         1.138339        -0.402509
 C         2.169727         1.519139        -0.249659
 C         2.557439        -0.571669         1.017015
 H        -0.532017         0.376541         0.933766
 H        -0.322878         0.197946        -0.703125
 H        -0.328115        -1.285800         0.177625
 H         1.218668        -1.876808        -1.031991
 H         2.102924        -0.626435        -2.204388
 H         4.147159        -2.930049        -0.556925
 H         4.850177        -0.091945         0.766892
 H         2.049106         2.096846         0.663168
 H         1.827851         2.122508        -1.107407
 H         2.457822        -0.922998         2.122868
