19
Iteration:   856
 C        -0.010081        -0.110363         0.220648
 C         1.561712         0.063575        -0.002967
 C         2.009931        -1.044281        -1.084794
 C         3.014419        -1.418063         0.004026
 O         3.893497        -2.423834         0.216683
 C         3.748392        -0.047744         0.330505
 O         3.637202         1.143654        -0.330796
 C         2.190188         1.393358        -0.291170
 C         2.539763        -0.496851         1.126211
 H        -0.253482         0.401866         1.244283
 H        -0.461061         0.565382        -0.585008
 H        -0.256942        -1.199260         0.407989
 H         1.178522        -1.750202        -1.194783
 H         2.450464        -0.784766        -2.111619
 H         4.257024        -2.815433        -0.604413
 H         4.832411        -0.238868         0.515775
 H         1.923139         2.129654         0.617530
 H         1.987699         1.872462        -1.267242
 H         2.335627        -0.578287         2.140961
