19
Iteration:  3501charge 0 multiplicity 1
 C         0.030654        -0.008378         0.350116
 C         1.537557        -0.003874        -0.047513
 C         1.925189        -1.301424        -0.835129
 C         3.238386        -1.330424        -0.040172
 O         3.959342        -2.466061         0.017849
 C         3.751350         0.060160         0.414614
 O         3.586019         1.217895        -0.353706
 C         2.178711         1.341901        -0.464278
 C         2.552454        -0.417346         1.101156
 H        -0.155311         0.797337         1.103349
 H        -0.646462         0.217808        -0.450059
 H        -0.305008        -1.048544         0.679558
 H         1.143291        -1.990785        -0.734059
 H         2.084775        -1.047309        -1.886148
 H         3.261286        -3.209468         0.127565
 H         4.651311         0.074551         0.928539
 H         1.670674         2.012814         0.182522
 H         1.808621         1.696127        -1.534849
 H         2.341182        -0.419859         2.165638
