19
Iteration:   209
 C        -0.029966         0.087616         0.356347
 C         1.490871        -0.015207         0.072107
 C         2.140380        -1.047970        -1.080463
 C         3.216214        -1.339401        -0.007081
 O         3.853557        -2.635948         0.112748
 C         3.777364         0.018385         0.447640
 O         3.570795         1.203925        -0.286036
 C         2.118423         1.293003        -0.506708
 C         2.500173        -0.528507         1.110480
 H        -0.103942         0.856542         1.160519
 H        -0.584511         0.421854        -0.498735
 H        -0.551034        -0.876578         0.775927
 H         1.359930        -1.804175        -1.277556
 H         2.477971        -0.572526        -2.052346
 H         4.533950        -2.579935        -0.585638
 H         4.752956         0.040817         0.948895
 H         1.666508         2.241106        -0.069993
 H         1.927111         1.426290        -1.513323
 H         2.306269        -0.669278         2.144226
