19
Iteration:   320charge 0 multiplicity 1
 C         0.016336        -0.052922         0.408266
 C         1.524158         0.030236         0.004378
 C         2.266197        -1.004714        -1.098138
 C         3.282429        -1.321906        -0.011794
 O         3.658756        -2.701092         0.120102
 C         3.815858         0.069274         0.521387
 O         3.492385         1.189819        -0.380292
 C         2.098787         1.417626        -0.449108
 C         2.507749        -0.508669         1.046920
 H        -0.189186         0.651447         1.139278
 H        -0.666347         0.034498        -0.374323
 H        -0.229845        -0.975231         1.096375
 H         1.769157        -2.026518        -1.253783
 H         2.616829        -0.648100        -2.064503
 H         4.454986        -2.693836        -0.458772
 H         4.744592         0.168075         1.083134
 H         1.810677         2.367362         0.177094
 H         1.926402         1.662227        -1.427000
 H         2.333077        -0.716387         2.141299
