19
Iteration:   252
 C         0.018337         0.208966         0.216207
 C         1.500251        -0.014384        -0.041271
 C         1.897816        -1.209472        -0.927487
 C         3.169395        -1.383857        -0.011340
 O         4.093845        -2.545777         0.057623
 C         3.724884        -0.050052         0.443704
 O         3.566040         1.170485        -0.352109
 C         2.169589         1.369797        -0.280829
 C         2.435980        -0.517909         1.085883
 H        -0.325894         0.774693         1.125408
 H        -0.353577         0.685799        -0.694868
 H        -0.540997        -0.808986         0.264878
 H         1.378477        -2.101642        -0.602050
 H         1.907307        -1.165771        -2.086244
 H         4.788686        -2.440021        -0.556651
 H         4.643261        -0.048334         0.972898
 H         1.997367         2.220804         0.509785
 H         1.849815         1.823576        -1.206019
 H         2.243616        -0.583995         2.125878
