19
Iteration:  4064
 C         0.030509        -0.035607         0.347388
 C         1.535629         0.032255         0.040946
 C         1.940910        -1.213732        -0.914329
 C         3.165468        -1.342878        -0.024412
 O         3.896142        -2.540044         0.095424
 C         3.809776         0.001803         0.317652
 O         3.549182         1.193583        -0.440389
 C         2.108230         1.378467        -0.380460
 C         2.561026        -0.415740         1.086886
 H        -0.140738         0.809518         1.148444
 H        -0.653620         0.325789        -0.409218
 H        -0.137931        -1.006683         0.728287
 H         1.283581        -1.950068        -0.692548
 H         1.970148        -1.083867        -2.064511
 H         4.809803        -2.374707        -0.085767
 H         4.756976        -0.062368         0.956718
 H         1.989688         2.204355         0.365384
 H         1.810601         1.643361        -1.356956
 H         2.501555        -0.624478         2.197841
