19
Iteration:   701
 C         0.008001         0.066925         0.263785
 C         1.494192         0.028529         0.031560
 C         2.199069        -1.000624        -0.999586
 C         3.223964        -1.415827         0.027490
 O         3.824599        -2.671643         0.093059
 C         3.753575        -0.003950         0.365900
 O         3.484920         1.144007        -0.448916
 C         2.076796         1.402267        -0.298674
 C         2.537430        -0.495440         1.136452
 H        -0.189794         0.861515         1.088946
 H        -0.494951         0.451609        -0.615842
 H        -0.262693        -1.040141         0.322203
 H         1.538141        -1.865807        -1.451694
 H         2.678091        -0.515380        -1.861531
 H         4.623697        -2.687312         0.645976
 H         4.697687         0.170720         0.817950
 H         1.980685         2.258842         0.393563
 H         1.632923         1.667142        -1.245980
 H         2.456052        -0.657321         2.232394
