19
Iteration:  3261
 C         0.093639        -0.253316         0.403993
 C         1.542787        -0.006740        -0.036375
 C         2.111800        -1.065388        -1.037375
 C         3.199951        -1.385780         0.041673
 O         3.732775        -2.649802         0.178223
 C         3.811231         0.066178         0.301900
 O         3.515927         1.283625        -0.533580
 C         2.082803         1.480908        -0.368566
 C         2.643923        -0.357838         1.095297
 H        -0.304776         0.305299         1.422821
 H        -0.621844        -0.141549        -0.364410
 H         0.002990        -1.331245         0.879040
 H         1.242593        -1.839870        -1.359027
 H         2.631190        -0.542370        -1.933658
 H         3.265660        -3.031058         1.006959
 H         4.869311         0.145032         0.722870
 H         2.104950         2.254913         0.574690
 H         1.748282         1.916728        -1.268426
 H         2.385796        -0.417377         2.143144
