19
Iteration:  4346
 C         0.025650        -0.002078         0.411404
 C         1.524354         0.054512         0.033459
 C         1.976043        -1.121867        -0.912711
 C         3.220641        -1.330632        -0.087169
 O         3.953282        -2.502645         0.028302
 C         3.717894        -0.019556         0.421573
 O         3.568909         1.070266        -0.461732
 C         2.065523         1.362917        -0.404696
 C         2.548533        -0.430423         1.109220
 H        -0.300559         0.846830         1.123070
 H        -0.583529         0.190343        -0.493294
 H        -0.262166        -0.893835         0.954486
 H         1.193131        -1.906386        -0.809759
 H         2.130907        -0.930782        -1.985106
 H         4.775396        -2.361641         0.544423
 H         4.678002        -0.040868         0.942688
 H         1.907845         2.210495         0.200590
 H         1.897604         1.652427        -1.531932
 H         2.402079        -0.812479         2.086032
