19
Iteration:   259charge 0 multiplicity 1
 C        -0.020167         0.170905         0.187641
 C         1.456831         0.019974        -0.025685
 C         1.901971        -1.241648        -0.857991
 C         3.145252        -1.428360        -0.015876
 O         4.095691        -2.543478         0.070431
 C         3.748296        -0.091948         0.384079
 O         3.593868         1.192925        -0.330616
 C         2.198996         1.440065        -0.309490
 C         2.450520        -0.538221         1.055235
 H        -0.229414         0.763981         1.156236
 H        -0.672021         0.645024        -0.631514
 H        -0.313762        -0.817069         0.242925
 H         1.189017        -2.078830        -0.765656
 H         2.082386        -1.021556        -1.925365
 H         4.792154        -2.249706        -0.515092
 H         4.678338        -0.094118         1.052441
 H         1.841580         1.946506         0.574318
 H         1.831200         2.121385        -1.226748
 H         2.329281        -0.390391         2.144794
