19
Iteration:  4534charge 0 multiplicity 1
 C         0.041612        -0.072093         0.427939
 C         1.487568         0.052810         0.034272
 C         2.008323        -1.058273        -0.962798
 C         3.135884        -1.418737         0.004960
 O         4.007924        -2.512751         0.122733
 C         3.783353        -0.059592         0.358565
 O         3.517195         1.163149        -0.397829
 C         2.124042         1.426788        -0.481147
 C         2.552786        -0.447409         1.092077
 H        -0.122245         0.691377         1.281287
 H        -0.552390         0.107087        -0.415234
 H        -0.175268        -0.979459         0.837776
 H         1.254110        -1.737517        -1.060135
 H         2.255675        -0.740120        -2.037746
 H         3.879125        -3.022687        -0.640225
 H         4.831136        -0.155577         0.807146
 H         1.782624         2.259686         0.256901
 H         1.734506         1.654824        -1.507879
 H         2.250424        -0.372411         2.154424
