19
Iteration:   149
 C        -0.012423        -0.138666         0.280011
 C         1.501002         0.015082         0.002982
 C         2.048996        -0.971772        -1.094208
 C         3.205090        -1.286925        -0.077542
 O         3.735213        -2.571343         0.338341
 C         3.893127         0.003561         0.347514
 O         3.588588         1.166337        -0.410230
 C         2.141420         1.404830        -0.280555
 C         2.545808        -0.512293         1.025456
 H        -0.439354         0.527124         1.141509
 H        -0.676646         0.036609        -0.631760
 H        -0.164350        -1.176639         0.535647
 H         1.400591        -1.895394        -1.255424
 H         2.224500        -0.432489        -2.065304
 H         4.360730        -2.862488        -0.416612
 H         4.783368         0.020044         0.894115
 H         2.005644         2.000955         0.669053
 H         1.974192         1.977362        -1.287657
 H         2.607086        -0.686737         2.086994
