19
Iteration:  2276
 C        -0.018339        -0.101439         0.262547
 C         1.478068         0.065763        -0.025108
 C         2.103400        -0.940850        -1.061072
 C         3.185279        -1.312744        -0.006280
 O         3.952061        -2.482157         0.271996
 C         3.778255        -0.053612         0.331581
 O         3.529150         1.063675        -0.435786
 C         2.145029         1.398615        -0.239771
 C         2.499291        -0.506483         1.075436
 H        -0.527378         0.550220         1.144255
 H        -0.483054         0.207171        -0.605056
 H        -0.285102        -1.109374         0.297371
 H         1.342481        -1.821570        -1.167943
 H         2.384111        -0.594869        -2.018209
 H         4.214158        -2.812804        -0.625441
 H         4.793026        -0.077335         0.918913
 H         1.957803         2.048322         0.675450
 H         1.755835         1.848135        -1.172527
 H         2.236937        -0.937865         2.089628
