19
Iteration:  2614charge 0 multiplicity 1
 C         0.109133        -0.045780         0.437269
 C         1.537531         0.040542        -0.017498
 C         2.120387        -1.106707        -1.045815
 C         3.197676        -1.333117        -0.035614
 O         3.833471        -2.604665         0.132098
 C         3.787620         0.004693         0.364771
 O         3.456590         1.180683        -0.449323
 C         2.050701         1.436339        -0.421208
 C         2.546146        -0.488144         1.077511
 H        -0.126372         0.762449         1.272561
 H        -0.621210         0.079607        -0.362099
 H        -0.033397        -1.001256         0.895152
 H         1.577650        -2.107756        -1.154819
 H         2.290515        -0.614593        -1.978289
 H         4.472022        -2.735799         0.879874
 H         4.722373         0.102584         0.809206
 H         1.962303         2.166938         0.477451
 H         1.549529         1.793696        -1.333872
 H         2.506011        -0.564930         2.203676
