19
Iteration:  1931
 C        -0.093265         0.167445         0.361158
 C         1.449603        -0.040387         0.057291
 C         1.955879        -1.220982        -0.888365
 C         3.224193        -1.355585        -0.005893
 O         4.009620        -2.501856        -0.134136
 C         3.775696         0.034010         0.480558
 O         3.549949         1.199373        -0.177857
 C         2.186371         1.229735        -0.618749
 C         2.518490        -0.518399         1.129054
 H        -0.095383         0.958350         0.967500
 H        -0.583408         0.536487        -0.594489
 H        -0.705429        -0.688322         0.715710
 H         1.414670        -2.086182        -0.785905
 H         2.128993        -1.110330        -2.035655
 H         4.850653        -2.177543         0.239853
 H         4.535395         0.084573         1.155734
 H         1.777580         2.202303        -0.337691
 H         2.266119         1.290373        -1.754109
 H         2.391076        -0.531258         2.200258
