19
Iteration:  3373
 C        -0.091716         0.135413         0.324249
 C         1.418069        -0.078823         0.072975
 C         1.976038        -1.147408        -0.799099
 C         3.228256        -1.279277        -0.029495
 O         4.026759        -2.421343        -0.145790
 C         3.810554         0.056674         0.482525
 O         3.566006         1.206741        -0.253784
 C         2.157092         1.191447        -0.671457
 C         2.570927        -0.536601         1.245031
 H        -0.127736         1.092317         1.008519
 H        -0.485992         0.347570        -0.628704
 H        -0.596675        -0.633987         0.877659
 H         1.440760        -2.222535        -0.561278
 H         2.222708        -1.108679        -1.918522
 H         3.474168        -3.183511        -0.064404
 H         4.668493        -0.185003         0.986253
 H         1.769283         2.262133        -0.506022
 H         2.073932         0.944291        -1.640614
 H         2.391740        -0.772364         2.301594
