19
Iteration:  3723charge 0 multiplicity 1
 C        -0.071416         0.214044         0.249647
 C         1.444382        -0.043874         0.088234
 C         1.950161        -1.259537        -0.824291
 C         3.232867        -1.306373        -0.019544
 O         4.107926        -2.405954        -0.108121
 C         3.809096        -0.002296         0.406560
 O         3.537963         1.168939        -0.302499
 C         2.183688         1.207312        -0.490291
 C         2.503838        -0.483727         1.226528
 H        -0.225028         1.018093         1.168638
 H        -0.449708         0.460892        -0.681762
 H        -0.590692        -0.572731         0.765920
 H         1.374730        -2.169744        -0.670427
 H         2.075697        -1.084845        -1.971711
 H         3.474801        -3.203978        -0.186409
 H         4.701879         0.147491         0.949272
 H         1.772428         2.136040        -0.100081
 H         1.729763         1.153245        -1.659415
 H         2.321404        -0.799276         2.271466
