19
Iteration:   431
 C         0.020507         0.173861         0.337931
 C         1.496029        -0.013916        -0.010755
 C         2.068037        -1.122522        -0.954592
 C         3.237973        -1.362032         0.040538
 O         3.971640        -2.529277        -0.097016
 C         3.712450        -0.026635         0.555127
 O         3.523846         1.119582        -0.340140
 C         2.138653         1.349938        -0.519084
 C         2.410618        -0.558826         1.141790
 H         0.029909         0.861653         1.101511
 H        -0.534317         0.552200        -0.504102
 H        -0.423305        -0.840179         0.796964
 H         1.428533        -2.067538        -0.854463
 H         2.332151        -0.919752        -1.988757
 H         4.803791        -2.539277         0.412925
 H         4.647412         0.018637         1.190631
 H         1.722935         2.290344         0.070088
 H         2.075533         1.528318        -1.519020
 H         2.112884        -0.420453         2.147720
