19
Iteration:  1074
 C         0.124823        -0.161187         0.273469
 C         1.569796         0.118068        -0.057680
 C         2.006722        -0.997445        -1.078432
 C         3.155626        -1.387483        -0.087587
 O         3.856782        -2.575308         0.279784
 C         3.793240        -0.038111         0.439391
 O         3.559954         1.188734        -0.391865
 C         2.174445         1.537949        -0.243500
 C         2.440601        -0.528585         1.001091
 H        -0.083310         0.532394         1.222779
 H        -0.545141        -0.121097        -0.609708
 H         0.012499        -1.185969         0.607308
 H         1.184631        -1.782085        -1.137918
 H         2.405632        -0.827122        -2.159065
 H         3.882428        -3.169176        -0.447394
 H         4.798058        -0.116557         0.846887
 H         1.810896         2.115353         0.654892
 H         1.853737         2.095705        -1.126522
 H         1.969474        -0.675891         1.943768
