19
Iteration:  2494charge 0 multiplicity 1
 C         0.115543        -0.006116         0.428744
 C         1.560164        -0.025914        -0.023180
 C         2.019657        -1.087091        -1.062038
 C         3.188412        -1.350633        -0.074170
 O         3.951685        -2.544696         0.123576
 C         3.738457         0.048846         0.455190
 O         3.489023         1.228839        -0.307690
 C         2.093857         1.331039        -0.482436
 C         2.561369        -0.509655         1.014301
 H        -0.029501         0.964414         1.187861
 H        -0.636692         0.096769        -0.321702
 H        -0.162694        -0.871457         1.003331
 H         1.199769        -1.999187        -1.197612
 H         2.437106        -0.754038        -2.021377
 H         3.331751        -3.102446         0.627745
 H         4.711897        -0.035101         0.880149
 H         1.753379         2.245426         0.131756
 H         1.856267         1.607555        -1.482174
 H         2.301680        -0.708123         2.015357
