19
Iteration:  2535charge 0 multiplicity 1
 C         0.004235         0.132015         0.343206
 C         1.508150        -0.008563         0.027272
 C         1.940341        -1.293463        -0.793259
 C         3.186697        -1.334761        -0.022434
 O         4.054672        -2.432442        -0.092751
 C         3.726423         0.044262         0.464618
 O         3.560157         1.187520        -0.241805
 C         2.162337         1.242003        -0.559977
 C         2.508673        -0.481490         1.170589
 H        -0.176719         0.903517         1.052889
 H        -0.472994         0.484756        -0.673210
 H        -0.544242        -0.752468         0.573807
 H         1.241370        -2.060924        -0.535468
 H         1.940081        -1.113710        -1.892970
 H         4.043471        -2.932613        -0.921772
 H         4.764868         0.022654         0.869892
 H         1.627746         2.171800        -0.214062
 H         2.078814         1.379967        -1.699690
 H         2.363728        -0.587887         2.200041
