19
Iteration:   719
 C         0.186097         0.017166         0.263891
 C         1.629002         0.010984         0.005913
 C         2.148240        -1.049052        -0.989671
 C         3.149152        -1.391512         0.043039
 O         3.780454        -2.669627         0.032667
 C         3.772615         0.030720         0.467027
 O         3.452273         1.206171        -0.406893
 C         1.992162         1.398876        -0.387557
 C         2.581296        -0.533658         1.126826
 H        -0.113777         0.902929         0.895055
 H        -0.324774         0.514938        -0.607293
 H        -0.425769        -0.819674         0.446270
 H         1.412540        -1.796245        -1.078470
 H         2.539528        -0.702673        -1.960541
 H         4.356888        -2.766529         0.817835
 H         4.793540         0.141669         0.907824
 H         1.642641         2.133023         0.433202
 H         1.664529         1.729332        -1.400336
 H         2.360917        -0.539667         2.133747
