19
Iteration:  2560
 C        -0.016087         0.168020         0.256729
 C         1.503851         0.014815         0.096383
 C         1.900612        -1.304499        -0.761091
 C         3.178949        -1.379113         0.020425
 O         4.135170        -2.408185        -0.103926
 C         3.726795        -0.026953         0.492327
 O         3.566090         1.144347        -0.343344
 C         2.163750         1.257581        -0.490709
 C         2.476248        -0.460474         1.135761
 H        -0.235973         0.983700         1.132456
 H        -0.383246         0.587324        -0.652710
 H        -0.635712        -0.705378         0.362010
 H         0.992952        -2.013508        -0.426593
 H         1.900995        -1.193206        -1.855576
 H         4.567491        -2.331181        -1.021058
 H         4.676065        -0.111405         0.888143
 H         1.791591         2.251896        -0.028431
 H         1.737974         1.398147        -1.473830
 H         2.306255        -0.686075         2.196540
