19
Iteration:  2688
 C         0.024845        -0.087415         0.450676
 C         1.500864        -0.013695         0.025995
 C         2.073955        -1.042951        -1.005119
 C         3.209418        -1.327708        -0.027651
 O         3.915571        -2.569577         0.179795
 C         3.828365         0.019085         0.343994
 O         3.507432         1.180254        -0.548618
 C         2.081412         1.385145        -0.372038
 C         2.558377        -0.427546         1.125096
 H        -0.285985         0.553409         1.206846
 H        -0.608497         0.080514        -0.503886
 H        -0.142300        -1.088938         0.765213
 H         1.351569        -1.754532        -1.276133
 H         2.562370        -0.621504        -1.898305
 H         3.262144        -3.220383        -0.000366
 H         4.740732        -0.007276         0.871967
 H         1.815230         2.076535         0.346547
 H         1.800384         1.700222        -1.406409
 H         2.551015        -0.352555         2.259190
