19
Iteration:  1325charge 0 multiplicity 1
 C         0.020333         0.030312         0.337402
 C         1.495035         0.006697         0.019399
 C         2.010046        -1.057274        -0.942574
 C         3.222405        -1.308996        -0.000407
 O         3.854659        -2.567902        -0.024275
 C         3.786049         0.004692         0.475499
 O         3.564514         1.208053        -0.215066
 C         2.159687         1.330469        -0.538110
 C         2.510279        -0.566757         1.068039
 H        -0.337410         0.772202         1.141485
 H        -0.524251         0.225690        -0.534199
 H        -0.258890        -0.987013         0.492600
 H         1.420625        -2.041947        -0.712227
 H         2.013189        -0.797019        -1.962993
 H         4.814528        -2.574147        -0.153451
 H         4.624234         0.132391         1.114207
 H         1.875780         2.188382        -0.024917
 H         1.966715         1.469384        -1.713253
 H         2.387601        -0.706542         2.112340
