19
Iteration:  4004charge 0 multiplicity 1
 C         0.086331        -0.091307         0.435535
 C         1.511720         0.023464        -0.019662
 C         2.145101        -1.112453        -0.959665
 C         3.235907        -1.288975        -0.037075
 O         3.834929        -2.533071         0.173732
 C         3.767182         0.042998         0.385515
 O         3.483571         1.101123        -0.516700
 C         2.134428         1.426945        -0.368585
 C         2.554773        -0.425515         1.038941
 H         0.044700         0.584296         1.253069
 H        -0.745865        -0.066922        -0.306207
 H        -0.194179        -1.047340         1.101825
 H         1.313737        -1.973958        -1.064534
 H         2.379822        -0.700519        -1.900351
 H         3.483031        -3.137830        -0.470625
 H         4.749033         0.122987         0.848649
 H         1.892368         2.028020         0.466123
 H         1.648410         1.911900        -1.233030
 H         2.249220        -0.515557         2.045181
