19
Iteration:  1826charge 0 multiplicity 1
 C         0.010044        -0.110520         0.254180
 C         1.514541        -0.031553        -0.016234
 C         2.056226        -1.109508        -0.884008
 C         3.212886        -1.321459         0.043903
 O         3.815920        -2.535338         0.028503
 C         3.784413         0.005518         0.349371
 O         3.574563         1.186186        -0.445647
 C         2.133769         1.402714        -0.319254
 C         2.549589        -0.401968         1.100272
 H        -0.380199         0.465306         1.192786
 H        -0.485910         0.347043        -0.550445
 H        -0.447018        -1.117676         0.411550
 H         1.302511        -2.005195        -0.826455
 H         2.338503        -0.857370        -1.880316
 H         4.427566        -2.652656         0.747389
 H         4.694476         0.056462         0.877544
 H         1.985899         2.134108         0.525250
 H         1.897433         1.820248        -1.342446
 H         2.417477        -0.608152         2.128417
