19
Iteration:  4478
 C         0.020776         0.165374         0.312798
 C         1.484593        -0.035687         0.044650
 C         1.991421        -1.312579        -0.832685
 C         3.221003        -1.366520        -0.031118
 O         3.955339        -2.587732        -0.002194
 C         3.759139         0.048533         0.369319
 O         3.487708         1.218229        -0.384598
 C         2.064571         1.363168        -0.394035
 C         2.606068        -0.476978         1.107628
 H        -0.143138         1.068022         1.005205
 H        -0.639943         0.407527        -0.498711
 H        -0.271434        -0.706242         0.719955
 H         1.347155        -2.072763        -0.690887
 H         2.242249        -1.123904        -1.941823
 H         4.874115        -2.524121        -0.410941
 H         4.730941         0.036734         0.852274
 H         1.976144         2.259959         0.337493
 H         1.742468         1.662078        -1.401226
 H         2.415024        -0.531216         2.254304
