19
Iteration:    48charge 0 multiplicity 1
 C         0.082208         0.190113         0.364669
 C         1.510951        -0.025792        -0.029424
 C         1.978352        -1.185070        -0.978948
 C         3.165159        -1.359255        -0.021250
 O         3.922088        -2.501632         0.020262
 C         3.774345        -0.071936         0.382056
 O         3.535549         1.284753        -0.069341
 C         2.146656         1.188834        -0.623345
 C         2.489987        -0.505360         1.120902
 H        -0.033340         1.100206         0.887094
 H        -0.608317         0.257574        -0.468853
 H        -0.318621        -0.796668         0.914995
 H         1.262273        -2.163819        -1.003053
 H         2.229322        -1.007705        -1.990092
 H         4.791257        -2.212859        -0.219430
 H         4.748298        -0.025683         0.969166
 H         1.677065         2.150456        -0.282440
 H         2.136382         1.263256        -1.798740
 H         2.156628        -0.678892         2.168726
