19
Iteration:   920charge 0 multiplicity 1
 C         0.047460         0.009406         0.319239
 C         1.520511        -0.081346         0.012243
 C         2.197645        -1.012297        -1.041212
 C         3.220855        -1.292967        -0.001740
 O         3.649075        -2.683351         0.043507
 C         3.802775         0.058403         0.399455
 O         3.545705         1.254172        -0.320284
 C         2.114886         1.255314        -0.387997
 C         2.561512        -0.466872         1.128210
 H        -0.151100         0.930758         1.047892
 H        -0.421020         0.187328        -0.647103
 H        -0.443760        -0.730262         1.031806
 H         1.597815        -1.896073        -1.433757
 H         2.553110        -0.463192        -1.921006
 H         4.668757        -2.722486         0.078910
 H         4.760988         0.220201         0.927515
 H         1.810668         2.049536         0.363323
 H         1.740588         1.531107        -1.319182
 H         2.308174        -0.688476         2.118774
