19
Iteration:  3890charge 0 multiplicity 1
 C        -0.017246         0.023561         0.381398
 C         1.484428        -0.016936         0.035219
 C         1.952819        -1.124687        -0.927651
 C         3.168178        -1.332253         0.017696
 O         4.027408        -2.488314        -0.020294
 C         3.742791         0.009177         0.387890
 O         3.576325         1.123162        -0.417956
 C         2.155497         1.356944        -0.455961
 C         2.508634        -0.469851         1.119374
 H        -0.033721         0.679577         1.334636
 H        -0.635990         0.395852        -0.471538
 H        -0.434115        -0.844906         0.746323
 H         1.388471        -2.094047        -0.885974
 H         2.130017        -0.876050        -1.989801
 H         4.166090        -2.732419         0.917724
 H         4.703478         0.009309         0.810456
 H         1.929091         2.177360         0.131807
 H         1.869739         1.666829        -1.514440
 H         2.456723        -0.697143         2.184793
