19
Iteration:  4569
 C         0.101003        -0.131724         0.482654
 C         1.529150         0.023079         0.012729
 C         2.125266        -1.072816        -1.073032
 C         3.244162        -1.247650        -0.063539
 O         3.777141        -2.505948         0.174346
 C         3.844255         0.051840         0.451981
 O         3.489574         1.153284        -0.514024
 C         2.104054         1.391635        -0.369594
 C         2.544565        -0.526715         1.039994
 H        -0.096820         0.532309         1.353463
 H        -0.637586         0.271838        -0.237777
 H        -0.179950        -1.168062         0.788069
 H         1.530302        -1.991386        -0.868556
 H         2.449873        -1.033386        -2.118089
 H         3.245938        -3.175523        -0.182524
 H         4.797533         0.296402         0.918518
 H         1.873174         2.198726         0.420779
 H         1.798556         1.885727        -1.434898
 H         2.181872        -0.827304         1.975158
