19
Iteration:  3505
 C         0.047937         0.005508         0.347179
 C         1.546007        -0.008428        -0.028824
 C         1.936320        -1.321907        -0.860604
 C         3.215886        -1.303470        -0.049804
 O         3.977362        -2.465227         0.015082
 C         3.725035         0.088824         0.413765
 O         3.586715         1.200547        -0.333262
 C         2.173858         1.328726        -0.499512
 C         2.542810        -0.428718         1.100556
 H        -0.156238         0.909135         1.148344
 H        -0.718524         0.214092        -0.411311
 H        -0.272020        -0.923826         0.797009
 H         1.025746        -2.013620        -0.590879
 H         2.038200        -1.105542        -1.952051
 H         3.383148        -3.189806         0.062598
 H         4.691854         0.004665         1.037794
 H         1.672121         2.091327         0.208952
 H         1.912313         1.644726        -1.485246
 H         2.295827        -0.523740         2.154019
