19
Iteration:  1295
 C         0.075732        -0.062767         0.411504
 C         1.544843        -0.048634        -0.085088
 C         2.214562        -1.023229        -1.150611
 C         3.182839        -1.347893         0.013691
 O         3.745826        -2.615446         0.141840
 C         3.767592         0.012915         0.432980
 O         3.524629         1.155816        -0.381771
 C         2.065725         1.426222        -0.315172
 C         2.479278        -0.439142         1.075112
 H        -0.042384         0.753404         1.148966
 H        -0.545062         0.206710        -0.507621
 H        -0.135011        -0.974553         0.876603
 H         1.671592        -1.835699        -1.421685
 H         2.599707        -0.534257        -2.113412
 H         4.616074        -2.686408        -0.258619
 H         4.692260         0.072474         1.007712
 H         1.989643         1.946924         0.665106
 H         1.683191         1.938548        -1.256592
 H         2.302536        -0.555269         2.067385
