19
Iteration:  4051
 C         0.105260         0.023485         0.356560
 C         1.531808         0.059134         0.045327
 C         1.970749        -1.089797        -0.921870
 C         3.192824        -1.354822        -0.036874
 O         3.849914        -2.565318         0.191295
 C         3.795263         0.004073         0.296612
 O         3.478310         1.142270        -0.460210
 C         2.058697         1.402849        -0.374992
 C         2.649139        -0.536047         1.073120
 H        -0.472756         0.581656         1.184702
 H        -0.269220         0.027147        -0.645203
 H        -0.263112        -1.022596         0.618578
 H         1.332653        -1.914540        -0.835057
 H         2.230434        -0.837253        -2.038696
 H         4.756106        -2.418186        -0.266074
 H         4.796281         0.116857         0.690497
 H         1.686374         2.105071         0.380315
 H         1.722469         1.744388        -1.269363
 H         2.716073        -0.528940         2.187301
