19
Iteration:  4760charge 0 multiplicity 1
 C         0.073479        -0.060255         0.327166
 C         1.528588         0.024852         0.088136
 C         2.136686        -0.950966        -1.013444
 C         3.176856        -1.395803         0.067981
 O         3.948465        -2.520826         0.067799
 C         3.767323         0.004037         0.369419
 O         3.499508         1.067153        -0.477164
 C         2.023489         1.420478        -0.354271
 C         2.534890        -0.480634         1.109335
 H        -0.328848         0.543262         1.156870
 H        -0.420077         0.363271        -0.553016
 H        -0.178333        -1.060885         0.478011
 H         1.307807        -1.623165        -1.341867
 H         2.573701        -0.529171        -1.955692
 H         3.389342        -3.269905         0.513174
 H         4.696540         0.087608         0.937779
 H         1.890036         2.152911         0.433604
 H         1.678312         1.695886        -1.435830
 H         2.469902        -0.649642         2.139224
