19
Iteration:  4084charge 0 multiplicity 1
 C        -0.015867         0.055053         0.508411
 C         1.458470        -0.054552        -0.029035
 C         1.962423        -1.254812        -0.838903
 C         3.225589        -1.277127        -0.016890
 O         3.945417        -2.519146        -0.042926
 C         3.723907         0.021907         0.435812
 O         3.633178         1.158935        -0.410826
 C         2.171865         1.339904        -0.541106
 C         2.474070        -0.436943         1.096008
 H        -0.280952         0.926565         1.225474
 H        -0.583843         0.438952        -0.321691
 H        -0.329422        -0.996472         0.712128
 H         1.386759        -2.123716        -0.765541
 H         2.069220        -1.045670        -1.994517
 H         4.854215        -2.245464         0.041676
 H         4.726110        -0.027448         0.953079
 H         1.779798         1.982538         0.229040
 H         1.985593         1.688653        -1.467264
 H         2.267525        -0.366121         2.226423
