19
Iteration:  3767charge 0 multiplicity 1
 C        -0.012079         0.107788         0.350470
 C         1.507320         0.009421         0.011528
 C         1.957826        -1.174437        -0.892935
 C         3.195053        -1.400855         0.024643
 O         4.107489        -2.390704        -0.028329
 C         3.708011        -0.048714         0.488159
 O         3.537796         1.104148        -0.428693
 C         2.135917         1.344326        -0.476519
 C         2.474238        -0.446899         1.145952
 H        -0.106774         0.633548         1.470167
 H        -0.625541         0.483039        -0.419928
 H        -0.284366        -0.895062         0.671038
 H         1.378710        -2.079007        -0.794557
 H         2.251740        -0.751189        -1.950400
 H         3.729948        -3.310492        -0.143851
 H         4.678219        -0.245856         0.967734
 H         1.856230         2.221888         0.058800
 H         1.994404         1.557030        -1.647460
 H         2.351032        -0.517847         2.238246
