19
Iteration:  3434
 C         0.032534        -0.038452         0.437762
 C         1.449489         0.011646        -0.062007
 C         2.076193        -1.122885        -1.064157
 C         3.202514        -1.318193        -0.067860
 O         3.934034        -2.470625         0.221708
 C         3.766235         0.019253         0.349872
 O         3.537457         1.099394        -0.496456
 C         2.138664         1.391582        -0.246686
 C         2.538993        -0.456948         0.985493
 H        -0.181063         0.583246         1.294738
 H        -0.761830         0.224861        -0.312960
 H        -0.209324        -1.139942         0.671422
 H         1.456739        -1.911150        -1.147928
 H         2.562203        -0.858808        -1.985924
 H         3.383724        -3.127659         0.589187
 H         4.744909         0.134228         0.833690
 H         2.099223         2.075725         0.563424
 H         1.745574         1.976575        -1.214130
 H         2.302117        -0.653406         2.064784
