19
Iteration:  4085charge 0 multiplicity 1
 C        -0.017155         0.057320         0.508399
 C         1.462445        -0.048022        -0.025478
 C         1.962565        -1.261031        -0.847855
 C         3.224153        -1.278938        -0.010317
 O         3.946475        -2.516028        -0.049555
 C         3.727294         0.023702         0.436792
 O         3.626208         1.155802        -0.408572
 C         2.166757         1.333409        -0.549039
 C         2.468424        -0.440352         1.099355
 H        -0.283227         0.940186         1.238206
 H        -0.593531         0.463640        -0.313003
 H        -0.294258        -0.962464         0.721621
 H         1.420261        -2.103293        -0.748100
 H         2.060986        -1.035176        -2.012721
 H         4.891313        -2.243435         0.051911
 H         4.726697        -0.040027         1.020266
 H         1.806921         2.003517         0.235623
 H         2.004232         1.663039        -1.492121
 H         2.300641        -0.366418         2.235620
