19
Iteration:  3686charge 0 multiplicity 1
 C         0.078286         0.005974         0.375942
 C         1.532499         0.012632         0.024550
 C         1.892322        -1.167422        -0.991955
 C         3.176212        -1.317290        -0.054056
 O         4.027977        -2.496776         0.081517
 C         3.760175         0.011354         0.327881
 O         3.551182         1.240390        -0.292012
 C         2.148752         1.333770        -0.453923
 C         2.504202        -0.502296         1.080618
 H        -0.139165         0.859926         0.940261
 H        -0.734118         0.030991        -0.443014
 H        -0.135924        -1.004850         0.940239
 H         1.074016        -1.951522        -0.933511
 H         2.140957        -1.093207        -2.127690
 H         3.549330        -3.151828         0.641357
 H         4.802617         0.017864         0.822560
 H         1.837444         2.232403         0.130572
 H         1.962220         1.578903        -1.492189
 H         2.412498        -0.735798         2.136183
