19
Iteration:    94
 C        -0.044612         0.107369         0.277719
 C         1.476075        -0.018598        -0.046240
 C         2.043449        -1.171332        -0.868664
 C         3.216928        -1.320969        -0.038677
 O         3.917558        -2.497608         0.054835
 C         3.792362        -0.003181         0.503523
 O         3.612909         1.135253        -0.355860
 C         2.168021         1.293223        -0.376242
 C         2.439433        -0.468169         1.051592
 H        -0.126001         0.855704         1.157768
 H        -0.681455         0.592894        -0.536949
 H        -0.498468        -0.892356         0.466745
 H         1.392251        -2.119326        -0.666383
 H         2.067519        -1.063611        -1.993724
 H         4.677661        -2.275812        -0.565183
 H         4.664309        -0.207497         1.055583
 H         1.717313         2.148169         0.232478
 H         2.066093         1.660242        -1.479267
 H         2.272984        -0.729398         2.069526
