19
Iteration:  4301charge 0 multiplicity 1
 C         0.003917         0.168668         0.384812
 C         1.457642        -0.039347         0.083279
 C         2.008169        -1.174900        -0.919692
 C         3.223380        -1.275454        -0.008289
 O         3.995564        -2.511065        -0.044197
 C         3.810094        -0.010577         0.489799
 O         3.513311         1.100119        -0.390028
 C         2.109372         1.255818        -0.497863
 C         2.476082        -0.439119         1.134639
 H        -0.162317         0.907394         1.174855
 H        -0.600134         0.443499        -0.550051
 H        -0.420102        -0.744713         0.885575
 H         1.516109        -2.220998        -0.740481
 H         2.091301        -0.914055        -1.946135
 H         4.875834        -2.363199        -0.496365
 H         4.829885         0.102514         0.983545
 H         1.797594         2.145358         0.036894
 H         1.694248         1.341341        -1.568228
 H         2.308299        -0.752189         2.124970
