19
Iteration:  1641
 C         0.012875        -0.247004         0.408388
 C         1.517977         0.032021        -0.067136
 C         2.095642        -1.036624        -1.147770
 C         3.100976        -1.288894        -0.051723
 O         3.759838        -2.532714         0.252841
 C         3.809378        -0.009084         0.371459
 O         3.603395         1.105524        -0.404173
 C         2.172371         1.471185        -0.292399
 C         2.527488        -0.407552         1.020148
 H        -0.317831         0.386714         1.384492
 H        -0.592610        -0.003703        -0.473152
 H        -0.094426        -1.296961         0.747424
 H         1.344443        -1.917340        -1.432241
 H         2.359785        -0.444668        -1.992534
 H         4.652546        -2.399390         0.027924
 H         4.771365        -0.128462         0.825234
 H         1.948876         2.112428         0.584896
 H         1.916600         2.046246        -1.358856
 H         2.489578        -0.497145         2.173820
