19
Iteration:   217
 C        -0.027580         0.145469         0.353027
 C         1.450585        -0.032049         0.021496
 C         2.111101        -1.021619        -1.048258
 C         3.249120        -1.319987         0.042288
 O         3.857093        -2.562533         0.090606
 C         3.773757         0.001139         0.435736
 O         3.538463         1.175730        -0.310793
 C         2.138389         1.255840        -0.475525
 C         2.524483        -0.609482         1.145499
 H        -0.170612         1.043152         1.129694
 H        -0.527028         0.566943        -0.606312
 H        -0.521921        -0.741127         0.537904
 H         1.715906        -1.990430        -1.212426
 H         2.337366        -0.582661        -2.122686
 H         4.509902        -2.533129        -0.598787
 H         4.768191        -0.019365         0.995973
 H         1.709126         2.197555         0.053572
 H         1.877844         1.191319        -1.605324
 H         2.467291        -0.786727         2.228366
