19
Iteration:   253charge 0 multiplicity 1
 C         0.014334         0.213303         0.213872
 C         1.493847        -0.012542        -0.041538
 C         1.898007        -1.210414        -0.917948
 C         3.161697        -1.390328        -0.011431
 O         4.096518        -2.547284         0.060071
 C         3.732076        -0.058096         0.436533
 O         3.569367         1.176055        -0.349628
 C         2.174686         1.380825        -0.288822
 C         2.435707        -0.521427         1.080223
 H        -0.308422         0.753701         1.093408
 H        -0.392039         0.666129        -0.664762
 H        -0.526830        -0.875071         0.254393
 H         1.341273        -2.139431        -0.613029
 H         1.924221        -1.148339        -2.051651
 H         4.812711        -2.414558        -0.565232
 H         4.624089        -0.049201         0.972611
 H         1.972931         2.212113         0.527933
 H         1.860102         1.850987        -1.150601
 H         2.255068        -0.543627         2.138235
