19
Iteration:  3658charge 0 multiplicity 1
 C         0.049513        -0.109000         0.453148
 C         1.507906        -0.006567        -0.062567
 C         2.107068        -1.084755        -1.068548
 C         3.257255        -1.275682        -0.013426
 O         3.846569        -2.535080         0.144851
 C         3.807785         0.011966         0.407071
 O         3.518756         1.154487        -0.475495
 C         2.122836         1.396620        -0.383653
 C         2.513008        -0.480300         1.037808
 H         0.033990         0.642690         1.403449
 H        -0.827570         0.097138        -0.083905
 H        -0.098011        -1.022094         0.945748
 H         1.479504        -1.912350        -1.342184
 H         2.447685        -0.812793        -2.038065
 H         3.249509        -3.085149         0.627762
 H         4.585825         0.217408         1.027742
 H         1.885148         2.108258         0.438563
 H         1.749900         2.038058        -1.306204
 H         2.405989        -0.417107         2.124793
