19
Iteration:  2033charge 0 multiplicity 1
 C         0.096431        -0.194301         0.369074
 C         1.594858         0.008476         0.022658
 C         2.201628        -0.903090        -1.130713
 C         3.234502        -1.339683        -0.016004
 O         3.682366        -2.594190         0.278512
 C         3.765454         0.050284         0.374752
 O         3.483980         1.184916        -0.478306
 C         2.064789         1.400836        -0.326332
 C         2.552481        -0.488327         1.060751
 H        -0.138394         0.589104         1.161468
 H        -0.479177        -0.051773        -0.465445
 H        -0.081949        -1.176911         0.901697
 H         1.421751        -1.749678        -1.237499
 H         2.532133        -0.468874        -2.096199
 H         4.281972        -2.896385        -0.459097
 H         4.853371         0.036439         0.838350
 H         1.787934         2.184012         0.507816
 H         1.692536         1.726781        -1.342679
 H         2.475123        -0.859451         2.098706
