19
Iteration:  2120
 C        -0.044299         0.159178         0.346860
 C         1.455392        -0.087693         0.066532
 C         2.033508        -1.168826        -1.027291
 C         3.247225        -1.347066        -0.038949
 O         4.006715        -2.519318         0.081829
 C         3.775656        -0.007612         0.460346
 O         3.562185         1.155717        -0.383803
 C         2.089079         1.338485        -0.392157
 C         2.486835        -0.531004         1.071477
 H        -0.255441         0.989778         1.062069
 H        -0.588412         0.386313        -0.514700
 H        -0.581595        -0.750228         0.759941
 H         1.349080        -2.085075        -1.158946
 H         2.154163        -0.690047        -2.003217
 H         4.882730        -2.291406        -0.171246
 H         4.710218         0.059150         1.046966
 H         1.735794         2.090481         0.221661
 H         1.817692         1.699604        -1.404507
 H         2.293009        -0.670491         2.110594
