19
Iteration:  4702
 C         0.044758         0.032011         0.386931
 C         1.510985        -0.038846        -0.014486
 C         1.923942        -1.111728        -1.006621
 C         3.245121        -1.334295        -0.085100
 O         3.949746        -2.502267         0.140008
 C         3.759919         0.012870         0.433080
 O         3.549605         1.262777        -0.288573
 C         2.163300         1.314051        -0.459482
 C         2.535725        -0.509417         1.068055
 H        -0.086475         0.637216         1.213500
 H        -0.583114         0.145027        -0.533207
 H        -0.228176        -1.093325         0.648166
 H         1.279124        -2.098241        -0.752325
 H         1.829082        -0.855589        -2.069854
 H         3.925131        -3.080216        -0.592570
 H         4.749564        -0.057816         0.888813
 H         1.712380         2.210971         0.075681
 H         1.931892         1.675642        -1.535797
 H         2.419322        -0.825086         2.130586
