19
Iteration:  1822charge 0 multiplicity 1
 C        -0.015340        -0.090417         0.251958
 C         1.501898        -0.031075         0.018288
 C         2.033030        -1.152369        -0.870460
 C         3.192133        -1.325163         0.037176
 O         3.840196        -2.532700         0.018101
 C         3.792946         0.010365         0.360152
 O         3.600660         1.211392        -0.415333
 C         2.139205         1.387678        -0.356654
 C         2.542659        -0.429460         1.059104
 H        -0.234524         0.494973         1.103095
 H        -0.658393         0.427477        -0.546933
 H        -0.438900        -1.141737         0.464339
 H         1.391579        -1.930559        -0.819567
 H         2.309892        -0.861993        -1.910396
 H         4.510451        -2.693122         0.754202
 H         4.738455         0.031062         0.909480
 H         1.885555         2.197903         0.411035
 H         1.883010         1.838785        -1.251928
 H         2.456981        -0.464020         2.195499
