19
Iteration:  4741
 C         0.096460        -0.075442         0.323437
 C         1.540490        -0.008735        -0.031777
 C         2.042532        -1.087028        -1.020558
 C         3.167414        -1.311855        -0.042949
 O         3.925181        -2.562280         0.165670
 C         3.761961         0.004285         0.415998
 O         3.504123         1.219614        -0.461822
 C         2.140709         1.386071        -0.302683
 C         2.548184        -0.455143         1.085984
 H        -0.089818         0.447139         1.364490
 H        -0.644837         0.331051        -0.348726
 H        -0.255954        -1.050133         0.484056
 H         1.479380        -1.921298        -1.146229
 H         2.322535        -0.707647        -2.032206
 H         3.308251        -3.320695        -0.089465
 H         4.744106         0.024268         0.806343
 H         1.822508         2.012223         0.573165
 H         1.747111         1.824065        -1.222782
 H         2.268894        -0.385372         2.174974
