19
Iteration:  3084
 C         0.073876         0.014065         0.495957
 C         1.543912        -0.083562        -0.043873
 C         2.052985        -1.083721        -1.067305
 C         3.230235        -1.300622        -0.058808
 O         3.881615        -2.508150         0.134284
 C         3.824929        -0.002907         0.401376
 O         3.511652         1.282472        -0.374488
 C         2.072498         1.321855        -0.437359
 C         2.530548        -0.531863         1.005937
 H        -0.071809         0.953006         1.140466
 H        -0.671341        -0.075969        -0.373390
 H        -0.124273        -0.953965         0.968087
 H         1.550983        -2.074794        -0.998515
 H         2.274435        -0.854342        -2.124084
 H         3.248230        -3.009545         0.747264
 H         4.722109        -0.146225         1.027338
 H         1.649471         2.134109         0.193510
 H         1.863020         1.634235        -1.441008
 H         2.461210        -0.792975         2.103164
