19
Iteration:  3665
 C         0.009725        -0.079029         0.502484
 C         1.536118         0.009234        -0.112100
 C         2.071749        -1.138126        -1.019344
 C         3.232079        -1.349142        -0.081199
 O         3.860328        -2.491166         0.129642
 C         3.813978        -0.008402         0.418895
 O         3.557930         1.192964        -0.422538
 C         2.080272         1.415088        -0.396432
 C         2.520192        -0.462134         1.022743
 H        -0.053446         0.760453         1.166174
 H        -0.846107         0.092745        -0.208922
 H        -0.105979        -1.162580         0.939426
 H         1.583080        -2.135277        -1.111235
 H         2.458063        -0.786045        -2.052557
 H         3.430174        -3.124598         0.663331
 H         4.756399         0.099632         1.081898
 H         1.971602         2.103607         0.440471
 H         1.786504         1.907651        -1.397086
 H         2.298042        -0.437232         2.091543
