19
Iteration:   847
 C         0.046746         0.028562         0.217681
 C         1.547351         0.003256         0.008347
 C         2.031783        -1.066783        -1.019160
 C         3.080464        -1.328572        -0.021402
 O         3.922673        -2.498177         0.199583
 C         3.775968        -0.055967         0.374118
 O         3.509769         1.117272        -0.353178
 C         2.189016         1.398003        -0.264429
 C         2.525113        -0.498957         1.096452
 H        -0.245735         0.399953         1.139823
 H        -0.464344         0.500707        -0.701021
 H        -0.305760        -1.005073         0.168160
 H         1.264529        -1.761754        -1.034854
 H         2.328173        -0.773794        -2.088516
 H         4.359142        -2.673511        -0.662568
 H         4.803789        -0.289143         0.708068
 H         1.940301         2.176068         0.443343
 H         1.867457         1.772049        -1.315096
 H         2.312025        -0.811303         2.070557
