19
Iteration:  4632
 C         0.029551         0.041636         0.318554
 C         1.528219         0.028999        -0.000878
 C         1.958802        -1.170261        -0.893516
 C         3.214897        -1.303816        -0.034655
 O         3.979996        -2.475454        -0.056962
 C         3.769816        -0.011992         0.395056
 O         3.518830         1.119005        -0.415402
 C         2.157101         1.357422        -0.388547
 C         2.477458        -0.517374         1.171011
 H        -0.190923         0.849714         1.088986
 H        -0.447182         0.150742        -0.610609
 H        -0.273737        -0.871262         0.633350
 H         1.377343        -1.991515        -0.647376
 H         2.009898        -1.083526        -2.038029
 H         4.362381        -2.505177         0.795048
 H         4.668283         0.045303         1.041414
 H         1.838696         2.039072         0.428279
 H         1.792244         1.775194        -1.224037
 H         2.390923        -0.608014         2.230505
