19
Iteration:  4804charge 0 multiplicity 1
 C         0.075694         0.000239         0.321473
 C         1.505898         0.013111        -0.013222
 C         1.962383        -1.201327        -0.920624
 C         3.169337        -1.356146        -0.050626
 O         3.975097        -2.479027        -0.020167
 C         3.765685        -0.006275         0.417616
 O         3.562308         1.233270        -0.337710
 C         2.143769         1.357176        -0.356979
 C         2.495480        -0.447536         1.058035
 H        -0.140907         0.908556         0.875027
 H        -0.439720         0.102303        -0.595867
 H        -0.103686        -0.845791         0.819023
 H         1.457220        -2.173060        -0.773980
 H         2.057772        -1.043753        -2.057760
 H         3.662654        -3.090356         0.750672
 H         4.605579        -0.083653         1.079075
 H         1.910259         2.038232         0.431108
 H         1.811446         1.731387        -1.410226
 H         2.304612        -0.721418         2.090054
