19
Iteration:  4494
 C        -0.030382         0.158689         0.321634
 C         1.527479        -0.083033         0.036758
 C         1.964037        -1.212507        -0.874134
 C         3.271552        -1.283333        -0.014244
 O         3.914599        -2.528271         0.041362
 C         3.844122         0.024190         0.406031
 O         3.522857         1.212183        -0.389326
 C         2.067376         1.228275        -0.391893
 C         2.611091        -0.456457         1.093615
 H        -0.145852         0.992983         1.015425
 H        -0.571201         0.219403        -0.688969
 H        -0.859146        -0.666873         0.690036
 H         1.432338        -2.229053        -0.484170
 H         1.827466        -1.062558        -1.933973
 H         4.409800        -2.551396        -0.871600
 H         4.862252         0.056678         0.863811
 H         1.762067         1.978579         0.305598
 H         1.773759         1.681569        -1.399222
 H         2.587445        -0.678090         2.097931
