19
Iteration:  1252
 C         0.085125        -0.169169         0.241339
 C         1.513339         0.089355         0.088356
 C         1.951481        -1.021677        -1.101026
 C         3.171117        -1.293589        -0.114278
 O         3.831365        -2.529293         0.302351
 C         3.829087        -0.017673         0.388910
 O         3.538634         1.154584        -0.387600
 C         2.172916         1.492765        -0.249417
 C         2.569829        -0.586410         1.035994
 H        -0.545990         0.388716         0.954859
 H        -0.325188         0.314368        -0.804093
 H        -0.188276        -1.242897         0.154048
 H         1.309044        -1.807510        -1.045458
 H         2.095303        -0.663820        -2.235072
 H         4.101819        -2.909273        -0.499807
 H         4.822404        -0.048957         0.798754
 H         2.018579         2.104922         0.751072
 H         2.004633         1.895663        -1.236995
 H         2.409075        -0.762889         2.017909
