19
Iteration:  1633
 C         0.023053        -0.229669         0.427841
 C         1.488973         0.049799        -0.062115
 C         2.028696        -1.026895        -1.105307
 C         3.139807        -1.328684        -0.052082
 O         3.791957        -2.549574         0.218636
 C         3.857365        -0.013352         0.424476
 O         3.632285         1.170285        -0.346166
 C         2.153843         1.450871        -0.390238
 C         2.520658        -0.426973         1.001664
 H        -0.409009         0.453469         1.219121
 H        -0.644950         0.062395        -0.491715
 H        -0.160578        -1.234943         0.663678
 H         1.362522        -1.884984        -1.089382
 H         2.231815        -0.720062        -2.138117
 H         4.660125        -2.483976        -0.137198
 H         4.785891        -0.158304         0.851473
 H         1.890255         2.225001         0.408865
 H         1.829888         1.909495        -1.261639
 H         2.253682        -0.606566         2.045120
