19
Iteration:   145
 C        -0.036486        -0.107852         0.268990
 C         1.524081         0.022853         0.019106
 C         2.076068        -0.920598        -1.079389
 C         3.219635        -1.344936        -0.061749
 O         3.753570        -2.581175         0.321645
 C         3.889018         0.036442         0.318990
 O         3.555592         1.150635        -0.411254
 C         2.132034         1.403819        -0.290140
 C         2.539539        -0.530193         1.047257
 H        -0.314720         0.534301         0.995084
 H        -0.664312         0.080505        -0.539963
 H        -0.233310        -1.237086         0.493529
 H         1.385404        -1.800224        -1.268144
 H         2.292166        -0.556621        -2.035388
 H         4.330362        -2.919500        -0.333025
 H         4.832043         0.009629         0.933766
 H         2.055746         2.052361         0.548578
 H         1.828727         1.906550        -1.193615
 H         2.547317        -0.701049         2.119763
