19
Iteration:   214charge 0 multiplicity 1
 C        -0.033509         0.124862         0.363329
 C         1.453503        -0.022194         0.045239
 C         2.132731        -1.016730        -1.077229
 C         3.246903        -1.326679         0.033739
 O         3.853605        -2.594543         0.100154
 C         3.775988         0.012456         0.431970
 O         3.553200         1.186257        -0.300831
 C         2.137701         1.272733        -0.480868
 C         2.515128        -0.584202         1.139531
 H        -0.121501         0.961686         1.070696
 H        -0.546092         0.522106        -0.559609
 H        -0.542685        -0.791850         0.601588
 H         1.546751        -1.977225        -1.269182
 H         2.347290        -0.620158        -2.057921
 H         4.511507        -2.507938        -0.609412
 H         4.732546        -0.010429         0.947695
 H         1.682856         2.134272        -0.032401
 H         1.869507         1.232740        -1.625312
 H         2.404993        -0.744450         2.245225
