19
Iteration:  1271charge 0 multiplicity 1
 C        -0.005075        -0.162137         0.279153
 C         1.507585         0.043193        -0.029010
 C         2.096088        -0.916331        -1.095100
 C         3.178762        -1.366664        -0.127379
 O         3.795762        -2.527196         0.342621
 C         3.795372        -0.030701         0.341171
 O         3.568941         1.141150        -0.453566
 C         2.143955         1.468095        -0.157919
 C         2.542259        -0.530727         1.000334
 H        -0.235320         0.472632         1.196701
 H        -0.662182         0.070985        -0.517849
 H        -0.055436        -1.137850         0.619276
 H         1.339248        -1.675709        -1.379085
 H         2.454273        -0.474728        -1.996161
 H         4.405442        -2.957347        -0.247578
 H         4.700402        -0.057205         0.904602
 H         2.126716         2.035571         0.751558
 H         1.751087         1.963751        -1.145492
 H         2.365763        -0.924388         2.014072
