19
Iteration:   732
 C         0.070132         0.032909         0.267813
 C         1.534474        -0.027441        -0.003324
 C         2.069011        -1.126969        -0.989917
 C         3.245441        -1.328730         0.006657
 O         3.756432        -2.616358         0.013985
 C         3.793104         0.051390         0.423628
 O         3.556902         1.236859        -0.335465
 C         2.114313         1.330164        -0.393305
 C         2.536675        -0.438336         1.103039
 H        -0.201145         0.647304         1.251416
 H        -0.380900         0.187902        -0.712341
 H        -0.176977        -1.009156         0.653111
 H         1.415134        -2.073227        -1.073681
 H         2.330839        -0.792269        -2.000714
 H         4.188586        -2.772974         0.877356
 H         4.724007         0.051989         0.959606
 H         1.787640         2.158103         0.375053
 H         1.784588         1.631231        -1.340988
 H         2.291915        -0.677229         2.130109
