19
Iteration:   750charge 0 multiplicity 1
 C        -0.139514        -0.114990         0.363718
 C         1.456160         0.043913        -0.078187
 C         2.006735        -1.116893        -0.932369
 C         3.203622        -1.287178        -0.084661
 O         3.819480        -2.504642         0.022517
 C         3.817416        -0.017339         0.449091
 O         3.707793         1.197335        -0.256094
 C         2.223393         1.384818        -0.459949
 C         2.529902        -0.505271         1.049960
 H        -0.257132         0.673490         0.973815
 H        -0.806496         0.131565        -0.532270
 H        -0.418709        -1.061472         0.672806
 H         1.506810        -1.975693        -0.707176
 H         2.084526        -1.035556        -2.035109
 H         4.193657        -2.615254         0.935186
 H         4.770696        -0.006809         1.043937
 H         1.915963         2.195041         0.134298
 H         2.065110         1.684596        -1.580845
 H         2.476313        -0.521936         2.093804
