19
Iteration:   844charge 0 multiplicity 1
 C         0.074294         0.055709         0.206344
 C         1.528357         0.010319         0.013191
 C         2.032681        -1.070140        -1.003256
 C         3.125829        -1.319042        -0.030338
 O         3.922541        -2.517168         0.191525
 C         3.778343        -0.066870         0.396813
 O         3.502073         1.116988        -0.362180
 C         2.165209         1.392602        -0.284118
 C         2.524945        -0.510190         1.085954
 H        -0.308012         0.528169         1.221760
 H        -0.484210         0.482083        -0.649645
 H        -0.364887        -1.006824         0.086011
 H         1.245182        -1.875160        -1.041461
 H         2.298898        -0.754355        -2.033559
 H         4.360941        -2.618236        -0.640548
 H         4.798776        -0.226977         0.798938
 H         1.918260         2.255440         0.508962
 H         1.815458         1.749970        -1.242136
 H         2.307597        -0.847011         2.073981
