19
Iteration:  4564
 C         0.102856        -0.109209         0.500976
 C         1.483833         0.014206         0.012828
 C         2.143488        -1.106270        -1.089631
 C         3.211752        -1.263706        -0.027619
 O         3.811598        -2.504167         0.169110
 C         3.797666         0.050807         0.436883
 O         3.521574         1.157999        -0.495953
 C         2.140103         1.388481        -0.411194
 C         2.540762        -0.462424         1.032246
 H         0.048789         0.471584         1.459097
 H        -0.666032         0.033505        -0.271873
 H        -0.175630        -1.148744         0.741882
 H         1.451851        -1.950859        -0.957012
 H         2.346311        -0.981169        -2.213439
 H         3.215719        -3.122624        -0.413245
 H         4.756219         0.155628         1.015559
 H         1.868830         2.074497         0.474525
 H         1.700741         1.830939        -1.194131
 H         2.219106        -0.765340         2.087257
