19
Iteration:  1006charge 0 multiplicity 1
 C         0.056715         0.211472         0.280167
 C         1.518072         0.021788         0.035083
 C         2.094870        -1.071403        -0.909753
 C         3.279750        -1.395201         0.002852
 O         3.940405        -2.634941        -0.089918
 C         3.727137        -0.045488         0.541574
 O         3.502221         1.185389        -0.314455
 C         2.069738         1.338862        -0.484875
 C         2.440218        -0.590908         1.174486
 H        -0.137673         0.961699         1.162304
 H        -0.304667         0.555213        -0.606927
 H        -0.634486        -0.685580         0.460988
 H         1.326118        -1.984320        -1.050100
 H         2.346718        -0.744171        -1.892605
 H         4.896030        -2.451603        -0.074640
 H         4.632000        -0.037662         1.190386
 H         1.825979         2.322462        -0.098458
 H         1.687649         1.311245        -1.556653
 H         2.178717        -0.499260         2.219969
