19
Iteration:  3537
 C        -0.024533         0.234553         0.425133
 C         1.500250        -0.039482         0.051647
 C         1.962674        -1.183579        -0.925342
 C         3.185679        -1.356381        -0.069145
 O         4.175478        -2.374118         0.030676
 C         3.687938        -0.007528         0.427957
 O         3.509398         1.142893        -0.268458
 C         2.125489         1.185074        -0.641620
 C         2.500491        -0.576181         1.103800
 H        -0.095822         1.319493         1.070278
 H        -0.755893         0.219439        -0.340606
 H        -0.279037        -0.329120         1.307627
 H         1.138025        -1.980014        -1.021041
 H         2.172074        -0.766906        -1.938967
 H         3.685610        -3.271324        -0.012656
 H         4.674024        -0.103141         1.034707
 H         1.871075         2.191622        -0.196320
 H         2.203511         1.196374        -1.785728
 H         2.318784        -0.660061         2.175441
