19
Iteration:  1889
 C         0.058832        -0.130658         0.383508
 C         1.539744         0.000740        -0.089976
 C         2.054992        -1.141597        -1.053809
 C         3.182835        -1.342530        -0.035149
 O         3.759439        -2.562819         0.117572
 C         3.802590         0.061279         0.418055
 O         3.564449         1.222557        -0.336782
 C         2.114726         1.425569        -0.357691
 C         2.586096        -0.456155         1.027117
 H        -0.158666         0.705316         1.032379
 H        -0.627705        -0.013775        -0.452305
 H        -0.085540        -1.168331         0.885029
 H         1.283274        -1.891156        -1.068428
 H         2.340253        -0.900006        -2.050583
 H         4.486057        -2.551984         0.695320
 H         4.736296        -0.012728         0.865617
 H         1.715907         2.266010         0.261753
 H         1.822636         1.661043        -1.286285
 H         2.361739        -0.455872         2.073182
