19
Iteration:   571
 C        -0.026277        -0.001955         0.260601
 C         1.458705         0.043889        -0.016854
 C         2.018787        -1.145196        -1.024899
 C         3.079264        -1.388892         0.042663
 O         3.936392        -2.545510         0.110805
 C         3.780929        -0.117265         0.372818
 O         3.640021         1.182443        -0.313624
 C         2.193809         1.442352        -0.311687
 C         2.501635        -0.442886         1.051751
 H        -0.333593         0.558859         1.168456
 H        -0.673920         0.370382        -0.481297
 H        -0.483325        -1.064891         0.575035
 H         1.140141        -1.893944        -1.019196
 H         2.451536        -0.982218        -1.972963
 H         4.691592        -2.205905        -0.350824
 H         4.745174        -0.186952         0.840772
 H         1.887582         2.249495         0.342408
 H         2.112909         1.871642        -1.463019
 H         2.295330        -0.398982         2.075000
