19
Iteration:  1659charge 0 multiplicity 1
 C         0.135948        -0.196236         0.339101
 C         1.534646         0.076269        -0.025632
 C         2.182709        -0.884008        -1.070303
 C         3.134337        -1.356606        -0.003368
 O         3.731959        -2.564598         0.278350
 C         3.773649        -0.003709         0.338875
 O         3.499861         1.121733        -0.573937
 C         2.142117         1.418180        -0.243727
 C         2.480521        -0.505744         1.048510
 H        -0.153229         0.312875         1.183552
 H        -0.616439         0.056012        -0.385836
 H         0.088623        -1.288542         0.691449
 H         1.444104        -1.640632        -1.342225
 H         2.725326        -0.523841        -2.012526
 H         4.645438        -2.584009         0.114983
 H         4.808218         0.006377         0.927848
 H         2.141842         2.005104         0.669782
 H         1.488327         2.033186        -0.875147
 H         2.237814        -0.676293         2.107018
