19
Iteration:  2885charge 0 multiplicity 1
 C         0.016340        -0.030167         0.253355
 C         1.563432        -0.041649         0.107119
 C         2.009972        -1.144333        -0.883302
 C         3.227188        -1.324439         0.035874
 O         3.945667        -2.562278         0.076241
 C         3.812413         0.063891         0.350096
 O         3.505502         1.158538        -0.520351
 C         2.106432         1.395378        -0.381614
 C         2.576002        -0.382414         1.177100
 H        -0.243525         0.456994         1.145658
 H        -0.682245         0.249476        -0.672248
 H        -0.242730        -1.067798         0.425962
 H         1.320038        -1.950486        -0.774480
 H         2.060771        -0.858867        -2.023158
 H         3.344963        -3.266643        -0.247218
 H         4.716381         0.247308         0.887777
 H         1.800417         2.080190         0.495595
 H         1.626996         1.885016        -1.286749
 H         2.486869        -0.554474         2.206364
