19
Iteration:  3989charge 0 multiplicity 1
 C         0.149124        -0.114675         0.475441
 C         1.539897         0.047368        -0.031209
 C         2.005633        -1.094380        -1.013775
 C         3.177216        -1.317368         0.028812
 O         3.929188        -2.535718         0.120517
 C         3.758909         0.008072         0.403987
 O         3.555080         1.172033        -0.488699
 C         2.075154         1.398473        -0.410266
 C         2.479184        -0.403524         1.096608
 H        -0.103501         0.635056         1.236605
 H        -0.556661         0.051301        -0.371170
 H         0.083365        -1.080289         0.724788
 H         1.332736        -1.983788        -0.876245
 H         2.144568        -1.110854        -2.139840
 H         3.384465        -3.294296        -0.331753
 H         4.728119         0.031645         0.991084
 H         1.920792         2.268328         0.282633
 H         1.876590         1.819990        -1.488110
 H         2.361386        -0.605597         2.223498
