19
Iteration:  1883
 C         0.017887        -0.137278         0.373555
 C         1.508287         0.019762        -0.052447
 C         2.097151        -1.088775        -1.079032
 C         3.204239        -1.356591        -0.013043
 O         3.749325        -2.598580         0.140659
 C         3.818053         0.056106         0.411782
 O         3.572394         1.234940        -0.389009
 C         2.094684         1.404543        -0.322573
 C         2.579190        -0.428661         1.032213
 H        -0.233106         0.657520         1.203294
 H        -0.713216        -0.153957        -0.456692
 H        -0.083840        -1.117211         0.791174
 H         1.341243        -1.963249        -1.288565
 H         2.414620        -0.776723        -2.123609
 H         4.514303        -2.563666         0.775705
 H         4.922887        -0.144203         0.746740
 H         1.880655         2.226505         0.396341
 H         1.718742         1.722368        -1.441263
 H         2.388586        -0.502877         2.119221
