19
Iteration:  4408
 C         0.131715        -0.088619         0.460802
 C         1.563057         0.071956         0.003366
 C         2.094179        -1.090204        -0.923729
 C         3.233808        -1.368555         0.025105
 O         3.766141        -2.660599         0.033513
 C         3.777138         0.079489         0.381881
 O         3.521734         1.167822        -0.517046
 C         2.061157         1.399884        -0.395020
 C         2.550639        -0.386212         1.042127
 H        -0.009457         0.556216         1.254957
 H        -0.735529         0.216366        -0.238293
 H         0.081597        -1.249348         0.656321
 H         1.279738        -1.939146        -1.066579
 H         2.361069        -0.743170        -1.914178
 H         4.287190        -2.871574         0.825798
 H         4.733824         0.329861         0.895515
 H         1.607957         2.172273         0.416454
 H         1.653544         1.612956        -1.355805
 H         2.329451        -0.421205         2.072842
