19
Iteration:  2736charge 0 multiplicity 1
 C        -0.015135         0.261801         0.277471
 C         1.424128        -0.080850         0.097218
 C         1.907062        -1.266216        -0.852001
 C         3.211526        -1.381122        -0.042816
 O         4.205400        -2.298988        -0.089821
 C         3.694729         0.020629         0.474922
 O         3.556922         1.087395        -0.378938
 C         2.131670         1.254876        -0.482888
 C         2.505740        -0.555204         1.132410
 H        -0.012239         1.140299         1.137866
 H        -0.473361         0.623486        -0.553932
 H        -0.562013        -0.546043         0.834877
 H         1.125138        -2.109171        -0.492365
 H         1.695653        -1.101791        -1.865232
 H         4.024616        -3.237663         0.265641
 H         4.710028        -0.092844         0.935296
 H         1.805263         2.033266         0.225687
 H         1.894064         1.505927        -1.497398
 H         2.428526        -0.680190         2.205510
