19
Iteration:  1539charge 0 multiplicity 1
 C         0.048272         0.146921         0.296005
 C         1.462838        -0.007792        -0.055541
 C         1.873430        -1.212206        -0.873809
 C         3.140511        -1.293233        -0.042645
 O         4.118110        -2.375880         0.014119
 C         3.693290        -0.040049         0.479379
 O         3.610140         1.124572        -0.238676
 C         2.229782         1.258220        -0.481465
 C         2.421345        -0.503443         1.122369
 H        -0.091831         0.802807         1.148316
 H        -0.568879         0.417584        -0.572300
 H        -0.236297        -0.946310         0.633166
 H         1.274555        -2.090760        -0.605139
 H         1.964010        -1.099204        -1.977737
 H         4.016915        -2.720183        -0.946409
 H         4.650406        -0.235440         0.947649
 H         1.755866         2.002563         0.080512
 H         2.040685         1.665891        -1.579268
 H         2.254921        -0.757375         2.097686
