19
Iteration:  1059charge 0 multiplicity 1
 C         0.082442        -0.136477         0.317228
 C         1.508104         0.062007        -0.142452
 C         2.019127        -1.128272        -1.090023
 C         3.123383        -1.335072        -0.096800
 O         3.812393        -2.490670         0.265958
 C         3.728330         0.009540         0.359312
 O         3.654742         1.215855        -0.245665
 C         2.226333         1.431175        -0.274582
 C         2.502237        -0.490717         0.969760
 H        -0.284533         0.443821         1.122759
 H        -0.579803        -0.039609        -0.483141
 H        -0.038175        -1.191815         0.712041
 H         1.228513        -1.971188        -1.060046
 H         2.076764        -0.851081        -2.081478
 H         3.911804        -3.007853        -0.538817
 H         4.605334        -0.153671         0.998036
 H         2.043746         2.066123         0.623590
 H         1.964541         2.114645        -1.205723
 H         2.457961        -0.756536         2.041157
