19
Iteration:  1957
 C         0.023615         0.276303         0.238108
 C         1.502015        -0.016140         0.075698
 C         1.960372        -1.238723        -0.818361
 C         3.230357        -1.366246        -0.047433
 O         4.089109        -2.417798        -0.170888
 C         3.688219         0.010341         0.547496
 O         3.529190         1.135038        -0.267989
 C         2.102599         1.156405        -0.540158
 C         2.438010        -0.553720         1.251341
 H         0.087491         1.130369         1.051463
 H        -0.316681         0.825207        -0.592310
 H        -0.627899        -0.630180         0.463575
 H         1.241917        -2.138575        -0.650676
 H         2.135619        -1.184822        -1.834146
 H         4.943618        -1.945379        -0.357725
 H         4.750505        -0.117281         1.046229
 H         1.584545         2.136139        -0.348440
 H         2.041321         1.160500        -1.556654
 H         2.062943        -0.741518         2.280404
