19
Iteration:   934
 C        -0.032959         0.072014         0.298343
 C         1.532796         0.000449         0.038391
 C         2.083914        -1.042471        -1.015784
 C         3.204198        -1.404965        -0.016077
 O         3.814169        -2.635919         0.026180
 C         3.815316        -0.017238         0.434077
 O         3.554913         1.195957        -0.305366
 C         2.069407         1.371891        -0.377373
 C         2.577513        -0.513429         1.093663
 H        -0.208446         0.969445         0.913220
 H        -0.713586         0.207045        -0.657237
 H        -0.397964        -0.887644         0.614447
 H         1.443016        -1.836150        -1.127165
 H         2.486096        -0.660924        -2.031621
 H         4.673153        -2.531419         0.382514
 H         4.801538        -0.165728         0.859763
 H         1.700291         2.233444         0.314344
 H         1.907736         1.663039        -1.453679
 H         2.533059        -0.361103         2.148610
