19
Iteration:  1435charge 0 multiplicity 1
 C         0.122506        -0.144843         0.339531
 C         1.541673         0.104784         0.045293
 C         2.043706        -1.034921        -1.110985
 C         3.163531        -1.331195        -0.079230
 O         3.808836        -2.604557         0.205336
 C         3.749927        -0.018965         0.422722
 O         3.574858         1.144770        -0.396867
 C         2.139568         1.474953        -0.343117
 C         2.476293        -0.452414         1.045899
 H        -0.449275         0.328745         1.224631
 H        -0.400185         0.101352        -0.568429
 H         0.010645        -1.174870         0.528289
 H         1.227354        -1.870005        -1.040592
 H         2.188325        -0.848542        -2.161223
 H         4.766073        -2.473731        -0.043099
 H         4.730812         0.049617         0.997983
 H         2.037765         2.210452         0.482121
 H         1.769113         1.793849        -1.307678
 H         2.267015        -0.734931         2.069991
