19
Iteration:  2998charge 0 multiplicity 1
 C        -0.004465         0.045195         0.275602
 C         1.516729        -0.031117         0.126339
 C         2.018348        -1.134438        -0.789452
 C         3.264544        -1.283967         0.052006
 O         3.985090        -2.510412        -0.057629
 C         3.777019         0.064138         0.426091
 O         3.530139         1.179018        -0.421699
 C         2.100131         1.272103        -0.514381
 C         2.525731        -0.461020         1.125312
 H        -0.252798         0.687326         1.216617
 H        -0.544226         0.408478        -0.502640
 H        -0.438268        -0.963070         0.468548
 H         1.332035        -2.053672        -0.814892
 H         2.252916        -0.861591        -1.780835
 H         3.350233        -3.216844        -0.064558
 H         4.768384        -0.072714         0.968773
 H         1.735223         2.214591         0.007795
 H         1.809203         1.372118        -1.554637
 H         2.513759        -0.663270         2.261285
