19
Iteration:  4173charge 0 multiplicity 1
 C         0.092678        -0.081783         0.333250
 C         1.551790         0.041530         0.043782
 C         1.958631        -1.199122        -0.887456
 C         3.169173        -1.326959        -0.033193
 O         3.830144        -2.575302         0.100046
 C         3.752501         0.051343         0.345264
 O         3.542307         1.194399        -0.494304
 C         2.126971         1.414091        -0.310407
 C         2.601882        -0.474880         1.049113
 H        -0.261339         0.787662         1.112326
 H        -0.612577         0.090143        -0.504015
 H        -0.142452        -1.048261         0.690060
 H         1.211872        -1.881134        -0.822280
 H         2.079065        -0.944183        -2.060653
 H         4.788464        -2.347429         0.153536
 H         4.743419         0.017390         0.941510
 H         1.908275         2.229449         0.395819
 H         1.834213         1.771928        -1.266953
 H         2.581479        -0.482190         2.136189
