19
Iteration:  2339charge 0 multiplicity 1
 C        -0.035945         0.129260         0.345413
 C         1.461466        -0.044778         0.007054
 C         1.984021        -1.202580        -0.920168
 C         3.229210        -1.310207        -0.053806
 O         3.996720        -2.459370        -0.070735
 C         3.724427        -0.019601         0.442142
 O         3.523047         1.239188        -0.123303
 C         2.155154         1.250740        -0.647173
 C         2.533075        -0.563994         1.124703
 H        -0.216827         1.060415         1.013482
 H        -0.451437         0.428138        -0.618908
 H        -0.583972        -0.693637         0.810211
 H         1.422965        -2.170635        -0.767913
 H         2.121671        -0.976985        -2.000297
 H         4.653813        -2.553009         0.619792
 H         4.634544        -0.003651         1.035024
 H         1.754150         2.170441        -0.184597
 H         2.440805         1.230173        -1.693126
 H         2.425948        -0.640030         2.269672
