19
Iteration:  3521
 C         0.074777         0.158580         0.451255
 C         1.461773        -0.012006        -0.022071
 C         1.933532        -1.220657        -0.912961
 C         3.190470        -1.333561        -0.025200
 O         4.081083        -2.391717         0.025489
 C         3.766692        -0.050544         0.474583
 O         3.563772         1.201534        -0.304478
 C         2.125286         1.292656        -0.568610
 C         2.454720        -0.510698         1.071274
 H        -0.037822         1.047435         0.854581
 H        -0.538776         0.099592        -0.511211
 H        -0.253002        -0.754871         1.036842
 H         1.512722        -2.141503        -0.606622
 H         1.939926        -1.314010        -2.002244
 H         3.577010        -3.234512        -0.080751
 H         4.706043        -0.063503         0.876587
 H         1.708969         2.220321        -0.167352
 H         1.883852         1.314423        -1.700723
 H         2.243381        -0.810383         2.105684
