19
Iteration:  4622
 C         0.037140        -0.000087         0.268298
 C         1.482132         0.031412         0.052410
 C         1.985159        -1.158927        -0.888877
 C         3.143375        -1.358394         0.013288
 O         3.975635        -2.477741        -0.017276
 C         3.734352        -0.018831         0.356746
 O         3.545778         1.153567        -0.414338
 C         2.090052         1.404778        -0.376927
 C         2.583646        -0.495377         1.127490
 H        -0.234712         0.720309         1.089668
 H        -0.592351         0.275782        -0.535841
 H        -0.197507        -0.912823         0.684208
 H         1.352056        -2.012597        -0.887925
 H         2.382490        -0.961827        -1.945098
 H         4.252549        -2.818627         0.802409
 H         4.776374        -0.064901         0.688660
 H         1.983252         2.135741         0.479212
 H         1.946140         1.868542        -1.309119
 H         2.454240        -0.702589         2.158457
