19
Iteration:  3638
 C         0.104531        -0.141164         0.440909
 C         1.589649         0.036343         0.035019
 C         2.155892        -0.920733        -1.015548
 C         3.184012        -1.339682        -0.032413
 O         3.840032        -2.571055         0.207572
 C         3.778478         0.058653         0.413463
 O         3.485032         1.094599        -0.578269
 C         2.029726         1.371939        -0.350579
 C         2.562504        -0.443700         1.056528
 H        -0.248259         0.472999         1.334454
 H        -0.474238         0.285096        -0.442383
 H        -0.170821        -1.139642         0.459765
 H         1.557743        -1.817686        -1.379077
 H         2.500809        -0.504694        -1.936839
 H         3.315177        -3.346031         0.340221
 H         4.753294         0.114183         0.742753
 H         2.029298         2.227063         0.351812
 H         1.560834         1.770574        -1.226447
 H         2.257462        -0.704399         2.073586
