19
Iteration:  4105
 C         0.071621         0.156029         0.451278
 C         1.479473         0.006246         0.048323
 C         2.009761        -1.143910        -0.854557
 C         3.212369        -1.334806         0.011976
 O         3.993368        -2.481166        -0.111782
 C         3.710449        -0.029037         0.488466
 O         3.513783         1.093380        -0.373635
 C         2.108885         1.263908        -0.571865
 C         2.509998        -0.486077         1.121920
 H         0.038410         1.015442         1.214079
 H        -0.628255         0.515481        -0.287436
 H        -0.342720        -0.837388         0.828490
 H         1.252644        -1.958796        -0.799849
 H         2.284023        -1.084112        -1.974076
 H         4.897033        -2.212602         0.295266
 H         4.694875         0.181883         0.893452
 H         1.635919         2.201716        -0.370406
 H         1.821396         1.053251        -1.609563
 H         2.139105        -0.669146         2.183359
