19
Iteration:  3102charge 0 multiplicity 1
 C         0.040621         0.017917         0.438318
 C         1.545511         0.020029         0.007830
 C         2.002352        -1.203678        -0.909298
 C         3.238286        -1.340906        -0.032234
 O         3.946731        -2.552605        -0.076555
 C         3.728764         0.102356         0.456520
 O         3.544180         1.241725        -0.288049
 C         2.093447         1.297693        -0.557324
 C         2.560557        -0.475107         1.125524
 H        -0.032515         0.821423         1.084200
 H        -0.673122         0.256048        -0.520565
 H        -0.352708        -0.891388         0.910324
 H         1.364756        -2.069264        -0.897614
 H         2.316078        -0.897236        -2.035321
 H         3.563204        -3.196007         0.595160
 H         4.748167         0.164490         0.939717
 H         1.676289         2.237339        -0.103711
 H         1.941189         1.372087        -1.710870
 H         2.224073        -0.645104         2.174810
