19
Iteration:  1482charge 0 multiplicity 1
 C         0.135398        -0.186781         0.299545
 C         1.612522        -0.008545         0.046844
 C         2.200653        -0.982740        -1.094283
 C         3.194359        -1.322802        -0.065473
 O         3.631958        -2.608364         0.269984
 C         3.836524         0.064366         0.425980
 O         3.475179         1.196600        -0.487295
 C         2.047299         1.448284        -0.223664
 C         2.630318        -0.471944         1.029466
 H        -0.199052         0.504150         1.024729
 H        -0.478089         0.060375        -0.653513
 H        -0.194889        -1.195548         0.613650
 H         1.537776        -1.706761        -1.411847
 H         2.692682        -0.462530        -1.997428
 H         3.482960        -3.176187        -0.454653
 H         4.785393         0.095957         0.951819
 H         1.831227         2.138176         0.500625
 H         1.660406         1.643754        -1.323061
 H         2.415932        -0.595833         2.169499
