19
Iteration:   725charge 0 multiplicity 1
 C         0.162084         0.028807         0.304891
 C         1.585751         0.002047        -0.026567
 C         2.108690        -1.076637        -0.982932
 C         3.184055        -1.378525         0.015587
 O         3.765353        -2.643098         0.023343
 C         3.778027         0.034015         0.459665
 O         3.513910         1.225084        -0.373176
 C         2.013386         1.362226        -0.386085
 C         2.569187        -0.480867         1.123918
 H        -0.124459         0.887117         0.901605
 H        -0.225616         0.362750        -0.684588
 H        -0.318367        -0.996202         0.356936
 H         1.429663        -1.982587        -1.097768
 H         2.430422        -0.754147        -1.986044
 H         4.298497        -2.841379         0.863257
 H         4.755087         0.197636         0.911274
 H         1.731340         2.072215         0.356957
 H         1.601544         1.694928        -1.388620
 H         2.273236        -0.654417         2.217192
