19
Iteration:  1723
 C         0.059427         0.108832         0.296111
 C         1.558850        -0.005538         0.027752
 C         1.895170        -1.274776        -0.878949
 C         3.153561        -1.332803        -0.089345
 O         4.018779        -2.449401         0.049426
 C         3.696063         0.023200         0.485808
 O         3.538234         1.238621        -0.196701
 C         2.182078         1.277300        -0.570988
 C         2.534916        -0.533422         1.100742
 H        -0.157679         0.866401         1.001208
 H        -0.517221         0.424297        -0.685307
 H        -0.420516        -0.888391         0.595293
 H         1.202781        -2.012698        -0.700687
 H         1.992404        -1.071039        -1.977816
 H         4.160685        -2.786280        -0.852154
 H         4.782595         0.009305         0.938949
 H         1.806168         2.272540        -0.054697
 H         2.007966         1.375698        -1.579803
 H         2.411782        -0.773283         2.186567
