19
Iteration:  2171charge 0 multiplicity 1
 C        -0.050343         0.138694         0.256413
 C         1.441497        -0.012048         0.105518
 C         1.966772        -1.222457        -0.883743
 C         3.180787        -1.327194        -0.000279
 O         4.067781        -2.422203        -0.174968
 C         3.672339        -0.037270         0.480934
 O         3.590225         1.126619        -0.278333
 C         2.206562         1.219194        -0.504890
 C         2.499946        -0.444427         1.202250
 H        -0.366492         0.834688         0.967558
 H        -0.652200         0.556054        -0.734426
 H        -0.528548        -0.829042         0.676860
 H         1.385669        -2.063196        -0.758796
 H         2.145578        -1.113944        -2.025512
 H         4.836926        -2.237024         0.344642
 H         4.729290        -0.048554         1.033533
 H         1.709773         2.125214         0.133185
 H         1.859880         1.391009        -1.614075
 H         2.482421        -0.468571         2.309304
