19
Iteration:  1538
 C         0.039359         0.135496         0.306739
 C         1.464895        -0.011358        -0.053849
 C         1.879241        -1.215255        -0.877185
 C         3.135077        -1.286418        -0.040022
 O         4.111115        -2.380300         0.016352
 C         3.700122        -0.037641         0.472647
 O         3.615542         1.125107        -0.239427
 C         2.231137         1.266607        -0.484277
 C         2.424112        -0.505765         1.119923
 H        -0.087192         0.784152         1.111143
 H        -0.603523         0.403866        -0.568445
 H        -0.258384        -0.923174         0.613695
 H         1.296791        -2.065708        -0.640021
 H         1.981957        -1.087016        -2.006482
 H         4.003946        -2.718065        -0.926335
 H         4.609478        -0.227497         0.956943
 H         1.751275         1.988045         0.130868
 H         2.067436         1.686892        -1.608755
 H         2.270538        -0.707485         2.144129
