19
Iteration:  1034
 C         0.015030         0.020803         0.333599
 C         1.519529        -0.013276        -0.057816
 C         2.064733        -1.084806        -1.009688
 C         3.209111        -1.326684        -0.080686
 O         3.773187        -2.573221         0.119341
 C         3.811683         0.032780         0.468863
 O         3.574010         1.242191        -0.213821
 C         2.131777         1.319381        -0.416572
 C         2.557519        -0.537687         1.051172
 H        -0.206288         0.725923         1.086482
 H        -0.553494         0.269106        -0.682380
 H        -0.453450        -0.864228         0.722035
 H         1.428523        -1.901978        -1.076152
 H         2.253158        -0.766770        -2.097447
 H         4.565382        -2.638926        -0.502637
 H         4.833442        -0.129694         0.824381
 H         1.865622         2.252569         0.109100
 H         1.930169         1.508173        -1.467657
 H         2.203824        -0.889074         2.098018
