19
Iteration:  2469
 C         0.044374        -0.153848         0.401785
 C         1.507897         0.050993        -0.069596
 C         2.132468        -1.045953        -1.027700
 C         3.177937        -1.340495        -0.007571
 O         3.828577        -2.525729         0.149261
 C         3.745111        -0.000117         0.329927
 O         3.566831         1.151394        -0.443713
 C         2.118864         1.424221        -0.317645
 C         2.517047        -0.486677         1.004318
 H        -0.205936         0.490449         1.230155
 H        -0.801888         0.023486        -0.407187
 H        -0.085745        -1.189127         0.726770
 H         1.341679        -1.841319        -1.097154
 H         2.553330        -0.766424        -2.051771
 H         4.083273        -2.562901         1.119548
 H         4.797614        -0.040838         0.803560
 H         2.078396         2.061003         0.606138
 H         1.735550         2.102229        -1.111613
 H         2.388053        -0.472268         2.075836
