19
Iteration:  1123charge 0 multiplicity 1
 C         0.008901         0.072233         0.256743
 C         1.511278        -0.017605         0.028889
 C         2.072809        -1.061230        -0.996276
 C         3.284039        -1.278729         0.016005
 O         3.761472        -2.623499         0.040132
 C         3.810722         0.030301         0.515720
 O         3.564083         1.172769        -0.383016
 C         2.065088         1.331938        -0.378919
 C         2.560500        -0.496322         1.151189
 H        -0.213678         0.642292         1.088976
 H        -0.385937         0.364610        -0.777980
 H        -0.391991        -0.995394         0.314686
 H         1.554234        -2.004638        -0.862989
 H         2.354364        -0.910050        -2.070896
 H         4.583598        -2.612653        -0.565503
 H         4.701645         0.099162         1.127150
 H         1.754236         2.125766         0.268045
 H         1.685005         1.585700        -1.355861
 H         2.521831        -0.856280         2.162895
