19
Iteration:  4671
 C         0.003425         0.167697         0.371810
 C         1.503239        -0.039361         0.000387
 C         2.100379        -1.150427        -0.939777
 C         3.168587        -1.391600         0.070126
 O         3.963153        -2.508111        -0.029041
 C         3.744293        -0.057955         0.445512
 O         3.481680         1.216633        -0.312357
 C         2.110130         1.302383        -0.504888
 C         2.539095        -0.542833         1.150653
 H        -0.290207         0.968873         1.059792
 H        -0.720314         0.289605        -0.514213
 H        -0.408518        -0.754832         0.969759
 H         1.330577        -2.036985        -0.942105
 H         2.222215        -0.805064        -1.952550
 H         4.787091        -2.261125        -0.624369
 H         4.808987         0.043097         0.772158
 H         1.793906         2.256538         0.040995
 H         1.988631         1.298472        -1.765770
 H         2.475759        -0.600325         2.255627
