19
Iteration:  4309charge 0 multiplicity 1
 C         0.003459         0.173295         0.427356
 C         1.426587        -0.068736         0.010436
 C         2.064149        -1.206902        -0.879478
 C         3.215282        -1.320654         0.012893
 O         3.988151        -2.513745        -0.087554
 C         3.719051         0.036190         0.489010
 O         3.587742         1.095789        -0.431241
 C         2.086281         1.273723        -0.478301
 C         2.494497        -0.409080         1.164857
 H         0.096831         0.960432         1.172112
 H        -0.677675         0.269339        -0.563157
 H        -0.553371        -0.785919         0.939388
 H         1.258077        -2.091151        -0.977987
 H         2.409094        -0.940120        -1.895854
 H         4.898260        -2.218262        -0.455424
 H         4.616468        -0.045637         1.152633
 H         1.675260         2.095911         0.123407
 H         1.792865         1.479356        -1.459071
 H         2.296627        -0.581294         2.256616
