19
Iteration:  2927
 C         0.050007         0.174291         0.521593
 C         1.421585        -0.026969        -0.046637
 C         1.894852        -1.228037        -0.884469
 C         3.210268        -1.333230        -0.104469
 O         4.114636        -2.378380         0.002331
 C         3.729975        -0.000800         0.472047
 O         3.516133         1.196275        -0.249004
 C         2.183635         1.181813        -0.635507
 C         2.503607        -0.509237         1.088652
 H         0.027683         1.087428         1.054321
 H        -0.734210         0.200418        -0.421664
 H        -0.378016        -0.682020         1.048642
 H         1.388119        -2.151459        -0.924645
 H         2.055399        -0.839201        -2.012530
 H         3.751911        -3.118240         0.466665
 H         4.707437         0.007118         0.916646
 H         1.803116         2.202857        -0.479400
 H         2.206659         1.208940        -1.739756
 H         2.296502        -0.895341         2.063489
