19
Iteration:   213charge 0 multiplicity 1
 C        -0.033934         0.122480         0.363581
 C         1.457842        -0.020004         0.052650
 C         2.138267        -1.018196        -1.083836
 C         3.243375        -1.328791         0.027836
 O         3.852102        -2.604325         0.104115
 C         3.778054         0.015016         0.433813
 O         3.557620         1.189611        -0.297628
 C         2.134747         1.278159        -0.485722
 C         2.511800        -0.574353         1.136240
 H        -0.108252         0.914421         1.049883
 H        -0.544225         0.498864        -0.529582
 H        -0.563670        -0.836305         0.639859
 H         1.489976        -1.964105        -1.280839
 H         2.358084        -0.628935        -2.028327
 H         4.530922        -2.508917        -0.626822
 H         4.713652        -0.002179         0.931053
 H         1.680135         2.124612        -0.058671
 H         1.877373         1.264150        -1.595981
 H         2.384548        -0.728402         2.229943
