19
Iteration:  4597charge 0 multiplicity 1
 C         0.024316        -0.080995         0.351320
 C         1.525148         0.008730         0.113932
 C         2.022364        -0.994659        -1.036673
 C         3.188802        -1.352968        -0.049325
 O         3.920179        -2.593984         0.129314
 C         3.817915        -0.019866         0.306345
 O         3.498978         1.227256        -0.443261
 C         2.072626         1.333430        -0.375335
 C         2.620543        -0.447731         1.106789
 H        -0.356332         0.588658         1.167403
 H        -0.515282         0.366782        -0.486485
 H        -0.272270        -1.080044         0.605145
 H         1.391007        -1.844182        -1.147885
 H         2.489396        -0.688465        -1.992659
 H         3.427722        -3.194311         0.663426
 H         4.798177         0.163499         0.819414
 H         1.876771         2.058152         0.392722
 H         1.812232         1.711877        -1.261619
 H         2.522070        -0.372400         2.210531
