19
Iteration:  2447charge 0 multiplicity 1
 C         0.027984        -0.211772         0.285676
 C         1.460238         0.026712         0.040221
 C         2.062914        -1.012334        -1.032576
 C         3.238873        -1.308275         0.031783
 O         3.761630        -2.597536         0.160428
 C         3.825506         0.027585         0.387726
 O         3.550639         1.107915        -0.572581
 C         2.140990         1.444928        -0.248363
 C         2.577429        -0.395782         1.112583
 H        -0.435562         0.247668         1.162963
 H        -0.508864         0.259113        -0.698103
 H        -0.210559        -1.288822         0.233476
 H         1.379579        -1.895854        -1.127357
 H         2.201688        -0.533837        -2.084558
 H         4.669162        -2.495754         0.419163
 H         4.823818         0.294889         0.914528
 H         2.200689         2.127339         0.656107
 H         1.596024         2.025609        -1.049499
 H         2.412770        -0.571015         2.195597
