19
Iteration:  3688charge 0 multiplicity 1
 C         0.068678         0.005928         0.353830
 C         1.549985         0.016690         0.027018
 C         1.861504        -1.167699        -0.981244
 C         3.177254        -1.335755        -0.068689
 O         4.036090        -2.481025         0.076555
 C         3.772862         0.005773         0.329633
 O         3.536363         1.244367        -0.284598
 C         2.152288         1.332994        -0.456391
 C         2.507027        -0.520713         1.106035
 H        -0.120080         0.965195         0.946277
 H        -0.661534         0.044284        -0.421669
 H        -0.123472        -0.977819         0.907856
 H         1.108537        -1.950914        -0.887844
 H         2.149875        -1.031160        -2.093569
 H         3.555091        -3.193301         0.635346
 H         4.724730         0.050688         0.820654
 H         1.893581         2.218142         0.103826
 H         1.943218         1.530598        -1.624823
 H         2.440325        -0.715235         2.176271
