19
Iteration:  1667
 C         0.135213        -0.173121         0.346042
 C         1.593340         0.077851        -0.016735
 C         2.185928        -0.900143        -1.064668
 C         3.164447        -1.325978         0.026028
 O         3.744647        -2.647130         0.279548
 C         3.803123         0.013133         0.390530
 O         3.469918         1.119991        -0.606166
 C         2.069502         1.468741        -0.235308
 C         2.466772        -0.531339         1.025246
 H        -0.163033         0.398806         1.223839
 H        -0.466061         0.114162        -0.625138
 H        -0.050258        -1.222438         0.529554
 H         1.465318        -1.600378        -1.199281
 H         2.487660        -0.399707        -2.010702
 H         4.623623        -2.587806        -0.041385
 H         4.815031         0.121566         0.848541
 H         2.099281         2.009475         0.787231
 H         1.593752         1.946048        -0.999682
 H         2.268705        -0.706952         2.013700
