19
Iteration:  3005
 C        -0.022235        -0.017529         0.282953
 C         1.492663        -0.008548         0.115276
 C         2.045941        -1.110532        -0.821803
 C         3.261039        -1.290086         0.060631
 O         3.948114        -2.494657        -0.050837
 C         3.822937         0.085428         0.413026
 O         3.565203         1.104897        -0.439303
 C         2.034781         1.309036        -0.500196
 C         2.542742        -0.458516         1.187092
 H        -0.339117         0.489226         1.165413
 H        -0.450826         0.542345        -0.718697
 H        -0.342635        -1.033938         0.465087
 H         1.342444        -1.887840        -0.742353
 H         2.236376        -0.834259        -1.970366
 H         3.301333        -3.245438         0.026854
 H         4.821545         0.201673         0.836293
 H         1.990348         2.131155         0.208978
 H         1.791230         1.537120        -1.557370
 H         2.446446        -0.579326         2.240672
