19
Iteration:    64charge 0 multiplicity 1
 C         0.040817         0.094003         0.316156
 C         1.529716         0.014637        -0.008847
 C         1.839684        -1.177844        -0.916049
 C         3.082645        -1.423734        -0.090175
 O         4.036520        -2.475453         0.063157
 C         3.721661        -0.023903         0.490555
 O         3.580454         1.255821        -0.171103
 C         2.244982         1.315584        -0.574296
 C         2.483226        -0.571219         1.056049
 H        -0.145775         0.883401         1.163435
 H        -0.465362         0.320139        -0.672577
 H        -0.287526        -0.727441         0.816467
 H         1.120038        -1.884382        -0.762317
 H         1.902525        -0.865552        -2.051536
 H         4.857788        -2.082598        -0.124905
 H         4.645280        -0.317209         0.884829
 H         1.705419         2.234667        -0.319388
 H         2.273140         1.169989        -1.629041
 H         2.348125        -0.753690         2.106970
