19
Iteration:  2551
 C         0.056956         0.183703         0.207073
 C         1.476281        -0.034415         0.058352
 C         1.798854        -1.232098        -0.758067
 C         3.221613        -1.355901         0.026928
 O         4.136410        -2.415163        -0.097349
 C         3.717645        -0.082471         0.492065
 O         3.566034         1.206311        -0.317895
 C         2.143869         1.274439        -0.556457
 C         2.505403        -0.500588         1.189702
 H        -0.135246         0.815506         1.206988
 H        -0.472037         0.565760        -0.574367
 H        -0.286055        -0.856302         0.501712
 H         1.234781        -2.230349        -0.393362
 H         1.825113        -1.275623        -1.853297
 H         4.155437        -2.322964        -1.114766
 H         4.607498        -0.210447         1.102753
 H         1.820291         2.125065         0.051053
 H         1.789310         1.308706        -1.570195
 H         2.321343        -0.412777         2.331248
