19
Iteration:   923charge 0 multiplicity 1
 C         0.016079         0.021915         0.329268
 C         1.519688        -0.090764         0.016078
 C         2.184525        -1.014268        -1.037130
 C         3.207030        -1.303421        -0.010528
 O         3.680283        -2.686439         0.040755
 C         3.812150         0.059088         0.393032
 O         3.546217         1.249533        -0.307673
 C         2.117301         1.263511        -0.391749
 C         2.568996        -0.476787         1.131072
 H        -0.133918         0.911388         0.957699
 H        -0.473772         0.240064        -0.713727
 H        -0.426577        -0.739571         0.949951
 H         1.592656        -1.794276        -1.338845
 H         2.579677        -0.469935        -1.981161
 H         4.641636        -2.666591         0.136119
 H         4.772416         0.106843         0.901440
 H         1.869885         2.087744         0.388271
 H         1.670652         1.535902        -1.395141
 H         2.303230        -0.546917         2.164103
