19
Iteration:  3876
 C         0.066062        -0.067762         0.414453
 C         1.533973         0.063091         0.081466
 C         1.983393        -1.048466        -0.925415
 C         3.212476        -1.306545        -0.081472
 O         3.913029        -2.460382         0.037852
 C         3.772610        -0.044815         0.448067
 O         3.582090         1.105499        -0.498979
 C         2.083970         1.348533        -0.482553
 C         2.540328        -0.507202         1.149735
 H        -0.477554         0.649722         1.148487
 H        -0.543422         0.146047        -0.419863
 H        -0.029923        -1.122893         0.470206
 H         1.191802        -1.763271        -0.966823
 H         2.171760        -0.638133        -2.073122
 H         4.008694        -2.736388         0.991951
 H         4.757602        -0.110392         1.010099
 H         1.814374         2.205305         0.249075
 H         1.753288         1.543159        -1.518014
 H         2.261302        -0.543093         2.183214
