19
Iteration:  3953charge 0 multiplicity 1
 C        -0.026365         0.066768         0.388770
 C         1.428385        -0.008262         0.115556
 C         1.980303        -1.164106        -0.962200
 C         3.148884        -1.304578        -0.050314
 O         4.013316        -2.457978        -0.009753
 C         3.826781        -0.004771         0.349696
 O         3.576782         1.189603        -0.301826
 C         2.109242         1.269030        -0.574621
 C         2.596233        -0.496889         1.146380
 H        -0.320369         0.773315         1.277900
 H        -0.504450         0.415159        -0.498751
 H        -0.439958        -0.857361         0.768011
 H         1.491271        -2.019130        -0.699510
 H         1.999709        -0.808581        -2.081707
 H         3.829542        -2.997069         0.831526
 H         4.767118        -0.090172         0.808636
 H         1.750934         2.235414         0.011717
 H         1.826432         1.259576        -1.631424
 H         2.541396        -0.705252         2.191120
