19
Iteration:  2617
 C         0.098354        -0.079942         0.437911
 C         1.542048         0.061015        -0.032725
 C         2.131179        -1.107221        -1.045785
 C         3.206349        -1.340038        -0.021639
 O         3.813663        -2.600084         0.136972
 C         3.786369        -0.002409         0.366864
 O         3.461437         1.192025        -0.455742
 C         2.049554         1.442746        -0.413940
 C         2.547788        -0.479015         1.064070
 H        -0.119651         0.714340         1.267990
 H        -0.637101         0.074770        -0.281007
 H        -0.005728        -1.078427         0.967958
 H         1.494664        -2.086846        -1.187169
 H         2.323470        -0.605590        -2.003489
 H         4.353469        -2.740355         0.886982
 H         4.828730         0.095609         0.807073
 H         1.938754         2.142855         0.476678
 H         1.623087         1.800689        -1.326803
 H         2.588906        -0.537640         2.180677
