19
Iteration:  2626
 C         0.076360        -0.202671         0.464651
 C         1.516965         0.044350        -0.048830
 C         2.136130        -1.062383        -1.034827
 C         3.226520        -1.353184         0.021337
 O         3.741979        -2.597553         0.130230
 C         3.802831         0.034275         0.336989
 O         3.521730         1.219111        -0.485855
 C         2.080484         1.420502        -0.356918
 C         2.583881        -0.426211         1.008279
 H        -0.081928         0.623500         1.338461
 H        -0.707286        -0.084202        -0.217781
 H        -0.015796        -1.190403         0.936960
 H         1.191229        -1.746072        -1.191161
 H         2.614609        -0.859865        -1.976022
 H         4.011547        -2.586197         1.030065
 H         4.780105         0.029761         0.793778
 H         1.626191         2.215524         0.408813
 H         1.926076         1.858607        -1.327618
 H         2.491460        -0.469239         2.150324
