19
Iteration:  1178charge 0 multiplicity 1
 C        -0.001816         0.204726         0.405861
 C         1.474080        -0.049299        -0.007581
 C         1.944604        -1.191414        -1.017691
 C         3.185011        -1.336490        -0.074891
 O         3.989929        -2.402272         0.029408
 C         3.734980        -0.073138         0.489478
 O         3.579043         1.143927        -0.202301
 C         2.232558         1.308277        -0.522362
 C         2.427052        -0.608833         1.056654
 H        -0.138222         1.022188         1.041798
 H        -0.649498         0.436916        -0.485942
 H        -0.367630        -0.710215         1.025938
 H         1.404751        -2.146887        -1.091051
 H         2.126973        -0.858293        -2.093155
 H         4.928471        -2.056471         0.093486
 H         4.720238        -0.149022         0.936343
 H         1.854991         2.224372        -0.098216
 H         2.075427         1.288297        -1.572400
 H         2.119764        -0.772502         2.017855
