19
Iteration:  1591charge 0 multiplicity 1
 C        -0.028106         0.235902         0.278453
 C         1.513938        -0.086148         0.026998
 C         2.023810        -1.226585        -0.927434
 C         3.210139        -1.337943        -0.023730
 O         3.966551        -2.528083        -0.010571
 C         3.842885         0.016777         0.465602
 O         3.493451         1.267654        -0.168503
 C         2.078374         1.187945        -0.520291
 C         2.579502        -0.509900         1.152328
 H        -0.025030         0.990174         0.963952
 H        -0.465602         0.634173        -0.693961
 H        -0.591803        -0.527679         0.724414
 H         1.396807        -2.039293        -0.853106
 H         2.278436        -0.980642        -2.033652
 H         4.116832        -2.724644        -0.992417
 H         4.772378         0.015184         0.951774
 H         1.471253         2.095335        -0.192003
 H         2.012703         1.279651        -1.580096
 H         2.168926        -0.743223         2.118655
