19
Iteration:  1696
 C        -0.068555        -0.023801         0.261458
 C         1.525974        -0.004649         0.012246
 C         2.109430        -1.092855        -0.942204
 C         3.230961        -1.300803        -0.034455
 O         3.800320        -2.565122         0.181422
 C         3.842076         0.025025         0.367459
 O         3.552286         1.236382        -0.359764
 C         2.099300         1.309122        -0.351863
 C         2.598765        -0.493640         1.056799
 H        -0.334919         0.669628         1.151118
 H        -0.620605         0.287405        -0.622075
 H        -0.405537        -1.030391         0.400809
 H         1.370817        -1.994062        -0.918650
 H         2.305699        -0.771727        -1.953549
 H         4.179685        -2.836533        -0.663829
 H         4.754026         0.053572         0.825814
 H         1.851902         1.985918         0.455404
 H         1.723244         1.666345        -1.430617
 H         2.616305        -0.595396         2.140421
