19
Iteration:    84
 C        -0.036611         0.114172         0.297543
 C         1.446156         0.033293        -0.015315
 C         1.900242        -1.226578        -0.918193
 C         3.234175        -1.273333        -0.045141
 O         3.981275        -2.466176         0.048826
 C         3.762398        -0.066178         0.495911
 O         3.649346         1.138425        -0.270540
 C         2.195861         1.360995        -0.512667
 C         2.447380        -0.517267         1.074748
 H        -0.335838         0.710115         1.260899
 H        -0.566775         0.465770        -0.652081
 H        -0.369389        -0.871631         0.573344
 H         1.395997        -2.151321        -0.560138
 H         1.945988        -1.160191        -2.078114
 H         4.849884        -2.477819        -0.364552
 H         4.619499        -0.105798         1.095069
 H         1.958690         2.182283         0.225934
 H         1.890912         1.595254        -1.586937
 H         2.266214        -0.847515         2.071159
