19
Iteration:   513
 C        -0.010018         0.055535         0.323168
 C         1.470761        -0.044523        -0.008902
 C         2.231848        -1.113986        -0.973749
 C         3.305528        -1.358432         0.004610
 O         3.684204        -2.647062         0.014299
 C         3.807490         0.053187         0.414462
 O         3.527893         1.216175        -0.365687
 C         2.072150         1.375144        -0.383513
 C         2.557676        -0.483637         1.107953
 H        -0.207317         0.905873         1.130120
 H        -0.629137         0.277934        -0.646427
 H        -0.315287        -0.901372         0.601357
 H         1.626690        -1.967811        -1.229243
 H         2.716288        -0.796549        -1.957210
 H         4.511751        -2.804643         0.585939
 H         4.754003         0.108712         1.026850
 H         1.695803         2.032176         0.448020
 H         1.880372         1.867413        -1.424722
 H         2.476145        -0.438774         2.231536
