19
Iteration:   458
 C        -0.073925         0.011184         0.336481
 C         1.449358        -0.039449         0.022525
 C         1.942961        -1.133338        -0.974759
 C         3.166235        -1.272968        -0.104584
 O         3.911925        -2.422740        -0.007024
 C         3.806801        -0.045034         0.416114
 O         3.680001         1.179374        -0.223689
 C         2.247990         1.271225        -0.486130
 C         2.462029        -0.455539         1.126460
 H        -0.159365         0.871935         1.138157
 H        -0.596414         0.209665        -0.648500
 H        -0.315554        -0.807125         0.875901
 H         1.327814        -1.975275        -0.748515
 H         2.037894        -1.074556        -2.110561
 H         4.448701        -2.489054         0.816949
 H         4.708213        -0.256700         0.980059
 H         1.806803         2.192297        -0.090377
 H         2.227514         1.397205        -1.682113
 H         2.165962        -1.007916         2.082359
