19
Iteration:   581charge 0 multiplicity 1
 C        -0.033615         0.051536         0.288725
 C         1.560535         0.032338        -0.064528
 C         1.994335        -1.179620        -0.974998
 C         3.148927        -1.386086        -0.030031
 O         3.899431        -2.542835         0.101781
 C         3.775908        -0.023300         0.425184
 O         3.626212         1.208460        -0.271246
 C         2.150616         1.385602        -0.387828
 C         2.495639        -0.483172         1.096479
 H        -0.218503         0.797988         1.139107
 H        -0.474581         0.395887        -0.625385
 H        -0.376917        -1.028233         0.543143
 H         1.261523        -2.078684        -1.031063
 H         2.223555        -0.880437        -1.988911
 H         4.606485        -2.610577        -0.567812
 H         4.725785        -0.224755         0.912719
 H         1.830601         2.043622         0.432533
 H         1.862103         1.890599        -1.464263
 H         2.180562        -0.529763         2.089736
