19
Iteration:  3095
 C         0.074356        -0.004616         0.421275
 C         1.479399        -0.008770         0.015070
 C         2.072393        -1.195306        -0.991033
 C         3.227093        -1.320913        -0.064828
 O         3.898551        -2.531724         0.006868
 C         3.793791         0.023481         0.495901
 O         3.533918         1.308371        -0.340137
 C         2.102994         1.301617        -0.524232
 C         2.547596        -0.503565         1.066401
 H        -0.033534         0.879227         1.183775
 H        -0.713202         0.242342        -0.361941
 H        -0.191884        -0.812355         1.113460
 H         1.311448        -2.000460        -0.950735
 H         2.177659        -0.868978        -2.032601
 H         3.492946        -3.126376         0.643579
 H         4.762798         0.158177         0.967760
 H         1.706230         2.152398         0.071575
 H         1.775120         1.318489        -1.540135
 H         2.365904        -0.673512         2.164066
