19
Iteration:  2184charge 0 multiplicity 1
 C        -0.077574         0.046506         0.257232
 C         1.494645         0.022273         0.053638
 C         1.978965        -1.125598        -0.809312
 C         3.230139        -1.307971         0.002390
 O         3.951671        -2.461274        -0.141855
 C         3.811766        -0.062751         0.454161
 O         3.554237         1.147140        -0.251662
 C         2.125018         1.280650        -0.540979
 C         2.517506        -0.478881         1.215270
 H        -0.342145         0.705284         1.059056
 H        -0.597257         0.294645        -0.738252
 H        -0.409369        -1.068595         0.392204
 H         1.366980        -1.960032        -0.711504
 H         2.053139        -0.854948        -1.896323
 H         4.864401        -2.317470         0.255678
 H         4.799617        -0.081587         0.980841
 H         1.830950         2.375315        -0.235266
 H         2.109325         1.232617        -1.707260
 H         2.399762        -0.595955         2.267772
