19
Iteration:  1233
 C         0.010737        -0.029580         0.195296
 C         1.541690        -0.006822        -0.003929
 C         2.067491        -1.079125        -0.940664
 C         3.206035        -1.334913        -0.002129
 O         3.812979        -2.562716         0.115342
 C         3.765874        -0.030283         0.382801
 O         3.605280         1.225149        -0.312873
 C         2.102334         1.380824        -0.334423
 C         2.565331        -0.462441         1.094195
 H        -0.251218         0.552239         1.034953
 H        -0.710197         0.304196        -0.618562
 H        -0.410339        -1.115699         0.360892
 H         1.297028        -1.881164        -0.917675
 H         2.366568        -0.743223        -2.003711
 H         4.242856        -2.720790        -0.724469
 H         4.752190        -0.094315         0.873267
 H         1.858617         2.034044         0.541772
 H         1.701027         1.751559        -1.232357
 H         2.486879        -0.741501         2.116672
