19
Iteration:   781
 C         0.117040         0.006093         0.323120
 C         1.541885         0.058287        -0.019549
 C         1.961809        -1.089266        -0.965275
 C         3.110676        -1.388245        -0.029316
 O         3.954493        -2.497666        -0.031919
 C         3.661829        -0.041706         0.472849
 O         3.565544         1.177115        -0.251208
 C         2.224606         1.317881        -0.481833
 C         2.432287        -0.509147         1.120473
 H         0.019514         0.816163         0.955872
 H        -0.423228         0.137384        -0.646681
 H        -0.185934        -0.860310         0.910934
 H         1.301350        -1.928790        -0.975063
 H         2.220359        -0.813818        -2.028876
 H         4.485816        -2.369348         0.756773
 H         4.674356        -0.015501         0.955784
 H         1.872041         2.187460        -0.054594
 H         1.977478         1.373237        -1.614591
 H         2.270829        -0.453101         2.180513
