19
Iteration:  4556charge 0 multiplicity 1
 C         0.078231        -0.110959         0.509324
 C         1.502998         0.001516        -0.045438
 C         2.112867        -1.139513        -1.062404
 C         3.184007        -1.298899         0.002825
 O         3.862678        -2.515950         0.150840
 C         3.737954         0.054871         0.393947
 O         3.575362         1.160653        -0.464414
 C         2.132783         1.369177        -0.401887
 C         2.497710        -0.385454         1.046326
 H        -0.005125         0.476115         1.483877
 H        -0.684597         0.103134        -0.186480
 H         0.002578        -1.091744         0.799093
 H         1.442989        -1.921944        -1.124763
 H         2.281077        -0.735869        -2.114751
 H         3.399562        -3.072440        -0.577050
 H         4.662863        -0.059372         1.033508
 H         1.956412         2.019084         0.552996
 H         1.676922         1.833405        -1.319069
 H         2.440915        -0.556071         2.111192
