19
Iteration:   820charge 0 multiplicity 1
 C        -0.087940         0.214870         0.256140
 C         1.469772        -0.103531         0.018227
 C         2.138838        -1.076987        -0.962193
 C         3.327543        -1.288685        -0.012575
 O         3.877323        -2.686983         0.042208
 C         3.755556         0.110234         0.516747
 O         3.540138         1.157695        -0.395980
 C         2.126468         1.330707        -0.355187
 C         2.509895        -0.604626         1.046374
 H        -0.160123         0.931808         1.227575
 H        -0.571666         0.604666        -0.618417
 H        -0.756893        -0.703974         0.403482
 H         1.434616        -1.991994        -0.795795
 H         2.212706        -0.872213        -2.003463
 H         4.808993        -2.649232        -0.228921
 H         4.530509         0.180017         1.252394
 H         1.808202         2.202558         0.415821
 H         1.841724         1.663023        -1.315462
 H         2.428688        -0.695790         2.186795
