19
Iteration:  2898
 C         0.054719         0.006699         0.361792
 C         1.490339        -0.002469         0.032279
 C         2.018294        -1.209776        -0.828682
 C         3.231759        -1.365391         0.003940
 O         3.970509        -2.516515        -0.007964
 C         3.750470         0.057636         0.421856
 O         3.509478         1.215179        -0.419296
 C         2.082588         1.344137        -0.475705
 C         2.583574        -0.431521         1.145200
 H        -0.278696         0.789592         1.060388
 H        -0.326642         0.407389        -0.587644
 H        -0.421769        -0.939353         0.564190
 H         1.377082        -2.110601        -0.927816
 H         2.344617        -0.920991        -1.832001
 H         3.379734        -3.320353         0.050618
 H         4.734139         0.034017         0.805833
 H         1.794043         2.262787         0.119043
 H         1.861650         1.439161        -1.570432
 H         2.458392        -0.414479         2.183380
