19
Iteration:  4499charge 0 multiplicity 1
 C        -0.046738         0.116698         0.310293
 C         1.544406        -0.119112         0.077132
 C         1.958599        -1.179847        -0.849409
 C         3.268617        -1.279239        -0.026324
 O         3.910248        -2.479371         0.056253
 C         3.856105         0.010326         0.424173
 O         3.517777         1.214774        -0.403894
 C         2.084054         1.240764        -0.435814
 C         2.612811        -0.512122         1.064765
 H        -0.147808         1.020482         0.946396
 H        -0.583379         0.311419        -0.633554
 H        -0.688730        -0.640020         0.685612
 H         1.456508        -2.052227        -0.543346
 H         1.742240        -0.863846        -1.914738
 H         4.218405        -2.651928        -0.804459
 H         4.832248        -0.043723         0.858088
 H         1.887606         2.127006         0.339685
 H         1.741915         1.579389        -1.383387
 H         2.500560        -0.690616         2.193773
