19
Iteration:  1493charge 0 multiplicity 1
 C         0.158336        -0.102097         0.300559
 C         1.569785         0.019450        -0.015198
 C         2.135659        -0.905609        -1.031100
 C         3.269350        -1.375291        -0.005511
 O         3.728575        -2.642204         0.222792
 C         3.803969         0.061102         0.413589
 O         3.449151         1.161789        -0.398720
 C         2.045374         1.410555        -0.373094
 C         2.596897        -0.541050         1.070752
 H        -0.053403         0.593930         1.045676
 H        -0.472725         0.100177        -0.648499
 H        -0.044394        -1.124642         0.658002
 H         1.446738        -1.646474        -1.246442
 H         2.452481        -0.381276        -2.007857
 H         3.465847        -3.219328        -0.504825
 H         4.698372         0.302464         0.942839
 H         1.797867         2.112036         0.356196
 H         1.566479         1.913852        -1.363462
 H         2.482523        -0.579841         2.227446
