19
Iteration:   739charge 0 multiplicity 1
 C        -0.013117        -0.016365         0.274204
 C         1.508117        -0.029487         0.017598
 C         2.050347        -1.161044        -0.978285
 C         3.245906        -1.266903        -0.025437
 O         3.767118        -2.589513         0.017272
 C         3.808233         0.048353         0.409378
 O         3.593997         1.231666        -0.307445
 C         2.199124         1.332008        -0.388667
 C         2.519068        -0.443240         1.066371
 H        -0.276398         0.585713         1.088668
 H        -0.777098         0.189396        -0.517977
 H        -0.215663        -0.951505         0.704647
 H         1.458666        -1.995851        -0.943281
 H         2.254892        -0.831651        -2.013859
 H         4.141544        -2.733704         0.862550
 H         4.743348        -0.046766         1.020105
 H         1.839471         2.086017         0.277164
 H         2.002885         1.649525        -1.490223
 H         2.375469        -0.589671         2.104006
