19
Iteration:   521
 C         0.011228         0.025556         0.299971
 C         1.518704         0.001879         0.009298
 C         2.224942        -1.075871        -1.022298
 C         3.270985        -1.268235         0.043855
 O         3.690622        -2.607295         0.034307
 C         3.767676         0.053212         0.428709
 O         3.525478         1.110207        -0.415697
 C         2.099798         1.332493        -0.355237
 C         2.568093        -0.491817         1.084616
 H        -0.235986         0.722661         1.137963
 H        -0.747960         0.368434        -0.514218
 H        -0.401924        -0.908157         0.605062
 H         1.638389        -1.942190        -1.160074
 H         2.590725        -0.591650        -1.993133
 H         4.554075        -2.757394         0.553502
 H         4.568658         0.219171         1.112853
 H         1.833539         2.095025         0.489202
 H         1.864846         1.742255        -1.255529
 H         2.471708        -0.733648         2.208626
