19
Iteration:  3164charge 0 multiplicity 1
 C        -0.018048         0.234904         0.282778
 C         1.506422        -0.049720         0.031362
 C         1.928284        -1.247493        -0.801693
 C         3.207066        -1.322337        -0.001059
 O         4.157605        -2.334820        -0.021260
 C         3.757632         0.009965         0.433387
 O         3.547256         1.090226        -0.447263
 C         2.074065         1.247534        -0.424964
 C         2.511830        -0.574199         1.138161
 H        -0.085350         0.971013         1.215631
 H        -0.482621         0.724153        -0.463229
 H        -0.637712        -0.620427         0.675486
 H         1.217119        -2.152871        -0.567526
 H         2.028361        -1.189984        -1.830761
 H         3.776754        -3.094068        -0.572890
 H         4.651509         0.096804         1.088717
 H         1.804287         2.046991         0.243958
 H         1.811604         1.433969        -1.401882
 H         2.182460        -0.689609         2.165307
