19
Iteration:  1772charge 0 multiplicity 1
 C         0.078448         0.309344         0.416641
 C         1.487774        -0.099683        -0.045258
 C         1.959770        -1.245648        -0.957324
 C         3.195213        -1.288310        -0.033751
 O         3.996436        -2.409514        -0.053647
 C         3.706522         0.004926         0.535243
 O         3.527398         1.243117        -0.151923
 C         2.153568         1.116814        -0.640772
 C         2.467143        -0.659171         1.129069
 H        -0.033706         1.316290         0.967067
 H        -0.578663         0.411451        -0.382842
 H        -0.311054        -0.557925         0.953243
 H         1.429669        -2.313049        -0.731504
 H         2.074538        -1.080028        -2.023841
 H         4.926177        -2.173446        -0.280997
 H         4.562968         0.067731         1.113095
 H         1.652079         2.053651        -0.540298
 H         2.143377         1.115568        -1.841427
 H         2.307100        -0.644417         2.174544
