19
Iteration:  4107charge 0 multiplicity 1
 C         0.072710         0.152535         0.458941
 C         1.493166        -0.003999         0.044978
 C         2.006577        -1.136198        -0.839296
 C         3.209967        -1.335955         0.003811
 O         4.001503        -2.485366        -0.109989
 C         3.704511        -0.024717         0.486551
 O         3.502782         1.095289        -0.373241
 C         2.096535         1.260469        -0.590830
 C         2.505326        -0.495424         1.135244
 H        -0.004561         1.078339         1.191384
 H        -0.561375         0.580644        -0.330508
 H        -0.308424        -0.788022         0.811372
 H         1.311706        -1.862953        -0.813691
 H         2.308681        -1.015043        -1.989406
 H         4.846893        -2.222610         0.298286
 H         4.779094         0.123776         0.842471
 H         1.630147         2.182394        -0.348201
 H         1.881497         1.040450        -1.542191
 H         2.118296        -0.688480         2.173102
