19
Iteration:  1126
 C         0.033209         0.070712         0.241055
 C         1.519689         0.008439         0.026973
 C         2.067228        -1.080161        -0.978153
 C         3.273303        -1.292684        -0.017488
 O         3.783801        -2.619059         0.033118
 C         3.776625         0.044028         0.508232
 O         3.556701         1.165483        -0.355587
 C         2.086123         1.340861        -0.378562
 C         2.553271        -0.499533         1.136222
 H        -0.310126         0.652697         1.099140
 H        -0.341314         0.425910        -0.632519
 H        -0.361552        -0.967641         0.392796
 H         1.445262        -2.045728        -0.828005
 H         2.297267        -1.090915        -1.950856
 H         4.621513        -2.615413        -0.482295
 H         4.660778         0.091910         1.134332
 H         1.710930         2.138100         0.266417
 H         1.703666         1.613757        -1.455409
 H         2.545959        -0.850991         2.117134
