19
Iteration:  3110
 C         0.036589         0.063710         0.408981
 C         1.531251        -0.039080         0.014251
 C         1.981698        -1.159777        -0.855559
 C         3.210903        -1.341873         0.025428
 O         4.009063        -2.548307        -0.137423
 C         3.739613         0.084134         0.442319
 O         3.517704         1.211583        -0.269650
 C         2.107140         1.318035        -0.596100
 C         2.543674        -0.446719         1.142884
 H        -0.242230         0.856864         1.173168
 H        -0.486021         0.240791        -0.456109
 H        -0.297864        -0.952957         0.688229
 H         1.367736        -2.087737        -0.771646
 H         2.155214        -1.047366        -1.894862
 H         3.595963        -3.208809         0.525221
 H         4.695330        -0.022345         0.940648
 H         1.685966         2.220282        -0.193919
 H         2.105593         1.391369        -1.699461
 H         2.325691        -0.543925         2.169010
