19
Iteration:  3331charge 0 multiplicity 1
 C         0.033405         0.187328         0.315412
 C         1.509035         0.000279        -0.008431
 C         1.907703        -1.322554        -0.786218
 C         3.185393        -1.417504        -0.028752
 O         4.196384        -2.340939        -0.058295
 C         3.687150        -0.074827         0.437411
 O         3.541291         1.141490        -0.328255
 C         2.141009         1.324110        -0.492604
 C         2.439693        -0.438521         1.144002
 H         0.015062         0.895657         1.159593
 H        -0.619156         0.626022        -0.546474
 H        -0.420546        -0.644644         0.756745
 H         1.186658        -2.100885        -0.596004
 H         1.938330        -1.142635        -1.817038
 H         3.778078        -3.260532        -0.234515
 H         4.704944        -0.211273         0.701286
 H         1.661185         2.147309         0.142214
 H         1.965665         1.447963        -1.626602
 H         2.296350        -0.466883         2.231780
