19
Iteration:  1109
 C        -0.032356        -0.028039         0.225403
 C         1.498223        -0.063612         0.055429
 C         2.191393        -0.994234        -0.972439
 C         3.240568        -1.301688         0.040439
 O         3.722720        -2.586531         0.096871
 C         3.881477         0.052271         0.466543
 O         3.538689         1.153078        -0.438382
 C         2.103857         1.296703        -0.348845
 C         2.563883        -0.520027         1.123741
 H        -0.356797         0.720568         1.062378
 H        -0.605386         0.581716        -0.635754
 H        -0.532160        -0.909877         0.563153
 H         1.658251        -1.822203        -1.373460
 H         2.379585        -0.224742        -1.906105
 H         4.208254        -2.761266        -0.707972
 H         4.867535         0.132652         0.958698
 H         1.873229         2.074092         0.438777
 H         1.814816         1.628279        -1.296539
 H         2.280919        -0.596067         2.240283
