19
Iteration:  3802
 C         0.080918        -0.061018         0.391789
 C         1.514650         0.018558         0.003495
 C         2.025962        -1.057319        -0.997775
 C         3.183224        -1.286422        -0.130967
 O         3.882319        -2.503590         0.214825
 C         3.832854        -0.017190         0.382439
 O         3.501371         1.171874        -0.451176
 C         2.095374         1.407596        -0.361844
 C         2.603726        -0.534755         1.026167
 H        -0.205627         0.735920         1.214180
 H        -0.631173         0.075102        -0.445351
 H        -0.121003        -1.015213         0.746337
 H         1.413017        -1.951496        -1.172550
 H         2.247084        -0.802977        -2.047656
 H         3.383298        -3.076817         0.840503
 H         4.919911        -0.183186         0.732167
 H         1.758052         2.097407         0.410348
 H         1.602234         1.760574        -1.376785
 H         2.596227        -0.765631         2.073376
