19
Iteration:  3595charge 0 multiplicity 1
 C        -0.013911        -0.043538         0.310050
 C         1.527655         0.001478         0.050150
 C         1.933133        -1.228295        -0.873797
 C         3.220497        -1.342058        -0.029669
 O         3.979108        -2.477984         0.063272
 C         3.853256        -0.003591         0.411326
 O         3.577993         1.204734        -0.462591
 C         2.110585         1.388793        -0.401526
 C         2.549103        -0.410273         1.098455
 H        -0.245075         0.643558         1.142552
 H        -0.579652         0.388802        -0.626235
 H        -0.301927        -1.077804         0.392753
 H         1.138232        -2.066461        -0.700288
 H         2.026790        -1.013122        -1.963901
 H         3.324268        -3.143419         0.094587
 H         4.742805        -0.050034         0.931505
 H         1.865815         2.170279         0.425637
 H         1.848898         1.824932        -1.299651
 H         2.252801        -0.456900         2.165373
