19
Iteration:  2532
 C        -0.006776         0.135527         0.353253
 C         1.488418        -0.020580         0.051917
 C         1.957745        -1.291044        -0.812084
 C         3.205136        -1.333537        -0.031057
 O         4.041081        -2.435271        -0.071291
 C         3.726771         0.041410         0.470658
 O         3.547036         1.200290        -0.233301
 C         2.174112         1.250843        -0.568112
 C         2.530210        -0.464604         1.129244
 H        -0.156131         0.893349         1.039167
 H        -0.470214         0.470684        -0.659147
 H        -0.574005        -0.808050         0.652348
 H         1.245292        -2.009512        -0.612144
 H         2.050628        -1.178677        -1.917847
 H         3.909127        -2.953121        -0.941519
 H         4.811971        -0.046555         0.860086
 H         1.735486         2.166555        -0.205070
 H         1.970858         1.297307        -1.722308
 H         2.305236        -0.689313         2.221554
