19
Iteration:  1973
 C         0.079262         0.235145         0.262089
 C         1.495344        -0.079066        -0.004402
 C         1.890846        -1.304844        -0.819242
 C         3.197773        -1.339894         0.044409
 O         4.101779        -2.420423        -0.132102
 C         3.689223        -0.021192         0.555344
 O         3.538488         1.123663        -0.286491
 C         2.156350         1.300541        -0.484574
 C         2.442894        -0.512920         1.115776
 H        -0.146569         0.885062         1.096902
 H        -0.453668         0.657373        -0.709539
 H        -0.558632        -0.611152         0.409558
 H         1.307629        -2.161326        -0.506029
 H         1.814785        -1.197967        -2.000578
 H         4.996895        -2.059505        -0.480398
 H         4.515895         0.059806         1.133792
 H         1.790730         2.096855         0.158040
 H         1.888953         1.571594        -1.652094
 H         2.321142        -0.637856         2.174452
