19
Iteration:  2457charge 0 multiplicity 1
 C        -0.008144        -0.214425         0.313533
 C         1.520580         0.014640         0.007542
 C         2.039998        -1.037601        -1.015617
 C         3.181974        -1.299910        -0.032336
 O         3.796517        -2.593740         0.168166
 C         3.818435         0.064871         0.371281
 O         3.527249         1.126846        -0.555261
 C         2.211393         1.444624        -0.223851
 C         2.542093        -0.394464         1.049902
 H        -0.213404         0.280204         1.193709
 H        -0.764960         0.182145        -0.550745
 H        -0.180464        -1.301182         0.534838
 H         1.450908        -1.896173        -1.251487
 H         2.436489        -0.564581        -1.996018
 H         4.474183        -2.476736         0.806063
 H         4.760469         0.068754         1.033596
 H         1.993100         1.955727         0.743702
 H         1.938785         2.001564        -1.180084
 H         2.380078        -0.520665         2.161186
