19
Iteration:  1193
 C         0.070620         0.189219         0.373939
 C         1.482128        -0.004891        -0.026366
 C         2.072800        -1.053189        -0.967422
 C         3.240503        -1.299276        -0.043792
 O         3.963613        -2.550712        -0.018890
 C         3.685483        -0.019052         0.562079
 O         3.554498         1.148488        -0.263179
 C         2.090951         1.241124        -0.567051
 C         2.406356        -0.612208         1.114057
 H         0.137696         1.115177         1.035100
 H        -0.467632         0.376857        -0.473279
 H        -0.361025        -0.594637         0.973208
 H         1.398446        -1.990751        -0.818147
 H         2.157360        -0.849288        -1.964093
 H         4.915928        -2.351702        -0.290988
 H         4.545892        -0.056116         1.260102
 H         1.677172         2.139794        -0.105201
 H         1.982784         1.545720        -1.689566
 H         2.271911        -1.011845         2.198542
