19
Iteration:  1484
 C         0.146999        -0.168206         0.296770
 C         1.606872        -0.011589         0.038427
 C         2.192547        -0.963347        -1.080647
 C         3.208819        -1.342208        -0.063397
 O         3.643755        -2.606997         0.264030
 C         3.834824         0.063368         0.435529
 O         3.466204         1.186036        -0.475212
 C         2.041714         1.457622        -0.251710
 C         2.631088        -0.488328         1.040672
 H        -0.124441         0.578224         1.020426
 H        -0.479922         0.036653        -0.635454
 H        -0.196651        -1.258292         0.584158
 H         1.489148        -1.702252        -1.409637
 H         2.643148        -0.455510        -1.976058
 H         3.459688        -3.198716        -0.466523
 H         4.730749         0.154836         0.943447
 H         1.807980         2.134463         0.499019
 H         1.649035         1.627029        -1.296345
 H         2.441817        -0.553940         2.092524
