19
Iteration:  1782charge 0 multiplicity 1
 C         0.111169         0.204837         0.340873
 C         1.503963        -0.041816         0.004244
 C         1.964850        -1.202238        -0.892910
 C         3.234251        -1.303800        -0.052332
 O         3.979387        -2.456410        -0.042574
 C         3.743943        -0.006532         0.496100
 O         3.482868         1.216421        -0.154571
 C         2.123238         1.203976        -0.664925
 C         2.444054        -0.595943         1.093152
 H         0.225873         1.113223         1.067268
 H        -0.506796         0.448507        -0.436431
 H        -0.354407        -0.512542         1.080475
 H         1.366613        -2.233984        -0.697260
 H         2.005315        -0.995216        -1.953712
 H         4.853467        -2.106730         0.084802
 H         4.622202        -0.046631         1.004517
 H         1.736347         2.138232        -0.249509
 H         2.065377         0.978895        -1.800941
 H         2.218080        -0.852205         2.123178
