19
Iteration:  2141
 C         0.053762         0.279915         0.284843
 C         1.473217        -0.007586        -0.048671
 C         2.024734        -1.233237        -0.899015
 C         3.243836        -1.322587         0.032435
 O         4.108885        -2.456226        -0.079456
 C         3.674305        -0.049409         0.492938
 O         3.461297         1.084825        -0.353988
 C         2.106077         1.310416        -0.402538
 C         2.418647        -0.608351         1.102258
 H         0.177878         1.124324         0.966437
 H        -0.672940         0.568906        -0.474836
 H        -0.463766        -0.569423         0.876978
 H         1.471779        -2.117945        -0.546191
 H         2.147850        -1.324790        -2.003894
 H         5.056778        -2.139173         0.166089
 H         4.624514         0.143057         1.040838
 H         1.812870         2.034551         0.339560
 H         1.698933         1.804878        -1.348066
 H         2.224727        -0.825734         2.119733
