19
Iteration:  3453
 C         0.059434        -0.084594         0.363884
 C         1.527170        -0.014544         0.075050
 C         2.117179        -0.909985        -1.043842
 C         3.200539        -1.282812         0.002683
 O         3.905341        -2.512513         0.226611
 C         3.833615        -0.003599         0.367206
 O         3.451152         1.067889        -0.629450
 C         2.089363         1.386395        -0.341213
 C         2.542265        -0.537773         1.090951
 H        -0.109176         0.447074         1.227322
 H        -0.604737         0.405946        -0.482820
 H        -0.330272        -1.064017         0.417459
 H         1.500282        -1.825195        -1.316211
 H         2.256550        -0.331903        -1.941469
 H         3.394648        -3.150350         0.684890
 H         4.828463        -0.144841         0.998654
 H         1.930309         1.974561         0.589089
 H         1.651262         1.929252        -1.151047
 H         2.484864        -0.571267         2.191366
