19
Iteration:   862
 C         0.019483        -0.154171         0.263498
 C         1.518398         0.082497        -0.015750
 C         1.993211        -1.049577        -1.088537
 C         3.015764        -1.414958        -0.008245
 O         3.875942        -2.428027         0.233844
 C         3.752706        -0.088857         0.346638
 O         3.697698         1.182654        -0.330886
 C         2.180012         1.425026        -0.313830
 C         2.558015        -0.503756         1.095670
 H        -0.303431         0.446023         1.135036
 H        -0.641567         0.273355        -0.467017
 H        -0.320283        -1.192407         0.266021
 H         1.174255        -1.788284        -1.416435
 H         2.471413        -0.701144        -1.970033
 H         4.133998        -2.798362        -0.582862
 H         4.773891        -0.220040         0.636764
 H         2.010221         2.034789         0.536803
 H         1.886865         1.956674        -1.211734
 H         2.325832        -0.443083         2.240205
