19
Iteration:  3872charge 0 multiplicity 1
 C         0.086350        -0.091189         0.422082
 C         1.527410         0.089119         0.089494
 C         2.010941        -1.018666        -0.934776
 C         3.195544        -1.310255        -0.062313
 O         3.886453        -2.479002         0.043668
 C         3.788923        -0.027052         0.449794
 O         3.554110         1.105188        -0.501180
 C         2.097643         1.328939        -0.455540
 C         2.542471        -0.484884         1.107506
 H        -0.355191         0.552678         1.068564
 H        -0.548714         0.113844        -0.523951
 H        -0.041484        -1.274041         0.494534
 H         1.236885        -1.829150        -1.080401
 H         2.139750        -0.716547        -1.942631
 H         3.918347        -2.694224         0.975862
 H         4.763214        -0.077383         0.935732
 H         1.892769         2.316224         0.200120
 H         1.770075         1.511513        -1.458633
 H         2.325362        -0.558372         2.206049
