19
Iteration:  4903charge 0 multiplicity 1
 C        -0.039080        -0.021811         0.294333
 C         1.511442         0.002584         0.024657
 C         1.971003        -1.124866        -0.918043
 C         3.202663        -1.382237        -0.017415
 O         4.055024        -2.488389         0.001049
 C         3.785192        -0.063938         0.448578
 O         3.559306         1.108747        -0.443810
 C         2.109737         1.426287        -0.349607
 C         2.495891        -0.365380         1.101636
 H        -0.258519         0.602185         1.191142
 H        -0.489055         0.388871        -0.544396
 H        -0.390304        -0.970333         0.354612
 H         1.315003        -1.919095        -1.035809
 H         2.179760        -0.888652        -1.946518
 H         3.532258        -3.271015         0.423854
 H         4.681295        -0.090805         1.144690
 H         1.956848         2.095052         0.471189
 H         1.712187         1.987042        -1.279830
 H         2.634652        -0.313006         2.244758
