19
Iteration:  4962charge 0 multiplicity 1
 C         0.027031        -0.010241         0.416026
 C         1.495149         0.040355        -0.038474
 C         2.104421        -1.110331        -1.042604
 C         3.244319        -1.342275         0.024844
 O         3.946149        -2.590182         0.073731
 C         3.804331         0.013545         0.421696
 O         3.526654         1.206734        -0.382748
 C         2.072225         1.387664        -0.412731
 C         2.481557        -0.464995         1.031827
 H        -0.323793         0.819541         0.987200
 H        -0.775142        -0.038644        -0.380524
 H        -0.156268        -0.883180         1.065850
 H         1.345943        -1.954354        -0.859529
 H         2.507475        -0.706670        -2.024887
 H         3.429073        -3.310584         0.395015
 H         4.812582        -0.024505         0.713686
 H         1.753794         1.910095         0.511101
 H         1.808732         1.873689        -1.388414
 H         2.428146        -0.518087         2.068495
