19
Iteration:  1305
 C         0.107780        -0.035798         0.368194
 C         1.532898        -0.002217        -0.034090
 C         2.192867        -1.078026        -1.065131
 C         3.224666        -1.339869        -0.058395
 O         3.762335        -2.641530         0.061674
 C         3.706500         0.041480         0.524378
 O         3.546071         1.184051        -0.384655
 C         2.061161         1.404917        -0.345603
 C         2.507762        -0.463543         1.108560
 H         0.067496         0.800148         1.122240
 H        -0.709225         0.166595        -0.336908
 H        -0.247815        -0.889251         0.807549
 H         1.515772        -1.856815        -1.179997
 H         2.613094        -0.695729        -2.022899
 H         4.658601        -2.681360        -0.203089
 H         4.616448         0.057002         1.103941
 H         1.707954         2.247022         0.273946
 H         1.825824         1.764135        -1.426047
 H         2.145494        -0.726892         2.011120
