19
Iteration:  1563charge 0 multiplicity 1
 C        -0.009170         0.308866         0.265554
 C         1.472777        -0.045947         0.086619
 C         1.919861        -1.274771        -0.852678
 C         3.218605        -1.343898        -0.079786
 O         4.169093        -2.413176        -0.044938
 C         3.701507        -0.039176         0.499467
 O         3.535505         1.169994        -0.199312
 C         2.148928         1.294519        -0.567791
 C         2.468990        -0.652532         1.144533
 H        -0.096206         1.229403         0.994289
 H        -0.263851         0.680085        -0.705597
 H        -0.802658        -0.499224         0.609691
 H         1.257154        -2.176591        -0.523601
 H         1.958819        -1.160741        -1.916197
 H         4.198539        -2.727770        -0.954275
 H         4.623889        -0.091835         1.207450
 H         1.617784         2.175368        -0.279908
 H         2.037408         1.375442        -1.714492
 H         2.284917        -0.685794         2.206548
