19
Iteration:  3057charge 0 multiplicity 1
 C         0.051625        -0.104519         0.418169
 C         1.534306         0.024602        -0.015908
 C         2.052609        -1.013940        -1.141408
 C         3.157176        -1.395115        -0.075829
 O         3.945329        -2.492519         0.309013
 C         3.826260        -0.061399         0.363039
 O         3.470252         1.194170        -0.536887
 C         2.112957         1.448525        -0.245477
 C         2.547494        -0.486028         0.991023
 H        -0.149262         0.627077         1.162704
 H        -0.750583        -0.125820        -0.402931
 H        -0.020053        -1.111413         0.853757
 H         1.264499        -1.771636        -1.294131
 H         2.464986        -0.626311        -2.138116
 H         3.314290        -3.220363         0.648119
 H         4.790199        -0.197451         0.801165
 H         1.970344         2.160555         0.612000
 H         1.686389         1.967509        -1.173742
 H         2.531774        -0.675047         2.005880
