19
Iteration:  3317
 C        -0.031458         0.179690         0.392161
 C         1.449907        -0.015577         0.037617
 C         1.933537        -1.226806        -0.917758
 C         3.155685        -1.320600         0.021393
 O         4.164036        -2.380380         0.032559
 C         3.751112        -0.054606         0.349923
 O         3.587473         1.143434        -0.393325
 C         2.135737         1.271414        -0.471167
 C         2.491471        -0.519773         1.095091
 H        -0.319922         0.989837         1.221562
 H        -0.607606         0.446248        -0.447033
 H        -0.458109        -0.853282         0.561591
 H         1.211669        -2.167752        -0.690457
 H         2.138839        -1.194317        -2.032378
 H         3.784869        -3.256162        -0.000000
 H         4.614517         0.031466         0.977655
 H         1.959150         2.192076         0.260691
 H         1.884370         1.655005        -1.404722
 H         2.286478        -0.618350         2.191353
