19
Iteration:  2021
 C         0.124811        -0.066926         0.317038
 C         1.535958         0.029773         0.026028
 C         2.072244        -0.967889        -0.991202
 C         3.199903        -1.311545        -0.091976
 O         3.794099        -2.568940         0.241351
 C         3.781075         0.016356         0.393419
 O         3.500075         1.163923        -0.420950
 C         2.060838         1.359812        -0.380372
 C         2.578013        -0.576553         1.047673
 H        -0.209330         0.652454         1.062302
 H        -0.546560        -0.015654        -0.485922
 H        -0.048825        -1.132018         0.729915
 H         1.352960        -1.761612        -1.305284
 H         2.445552        -0.445253        -1.944392
 H         4.602165        -2.717831        -0.203363
 H         4.819282         0.136282         0.959058
 H         1.924676         2.181842         0.413576
 H         1.535485         1.702287        -1.356770
 H         2.315258        -0.725107         2.117555
