19
Iteration:   724charge 0 multiplicity 1
 C         0.171887         0.025441         0.301447
 C         1.593417         0.004747        -0.024981
 C         2.116858        -1.068517        -0.982569
 C         3.175921        -1.381241         0.017897
 O         3.768051        -2.647354         0.025547
 C         3.778467         0.032521         0.463728
 O         3.506087         1.222604        -0.378283
 C         2.004679         1.366904        -0.390649
 C         2.572453        -0.488609         1.124268
 H        -0.131472         0.935363         0.890588
 H        -0.231399         0.393004        -0.664248
 H        -0.348657        -0.998919         0.348594
 H         1.403479        -1.992403        -1.097310
 H         2.445555        -0.747370        -1.980044
 H         4.301811        -2.837408         0.846326
 H         4.741918         0.199430         0.899502
 H         1.711870         2.089676         0.383238
 H         1.611284         1.691094        -1.360600
 H         2.279363        -0.641744         2.222348
