19
Iteration:  4259charge 0 multiplicity 1
 C         0.016586         0.032514         0.384003
 C         1.517366        -0.000534         0.005668
 C         1.914226        -1.251789        -0.977236
 C         3.193669        -1.367883        -0.046670
 O         3.921696        -2.529541         0.193240
 C         3.808419         0.011918         0.231642
 O         3.542453         1.303012        -0.281092
 C         2.126512         1.337438        -0.386983
 C         2.641316        -0.465751         1.055075
 H        -0.254360         0.611088         1.274924
 H        -0.368543         0.323443        -0.509842
 H        -0.413160        -0.891435         0.517638
 H         1.233045        -2.035182        -0.789916
 H         1.968521        -1.062817        -2.084717
 H         4.310323        -2.739112        -0.631773
 H         4.871724        -0.122945         0.613515
 H         1.576833         2.102763         0.225286
 H         1.897527         1.656276        -1.484228
 H         2.276346        -0.570228         2.056181
