19
Iteration:   114charge 0 multiplicity 1
 C         0.078723         0.119257         0.249837
 C         1.534214        -0.019527         0.021704
 C         2.114057        -1.088826        -1.032282
 C         3.202744        -1.379352         0.076940
 O         3.860512        -2.605570         0.105508
 C         3.780627         0.046606         0.446431
 O         3.477367         1.131601        -0.439371
 C         2.077825         1.358263        -0.369669
 C         2.502912        -0.498813         1.176159
 H        -0.168137         0.749627         1.086678
 H        -0.326782         0.550300        -0.658986
 H        -0.414548        -0.949083         0.413908
 H         1.543019        -2.107552        -1.327606
 H         2.469081        -0.670625        -1.919720
 H         4.541327        -2.709013        -0.651190
 H         4.702897         0.040781         1.043739
 H         1.869302         2.051052         0.480193
 H         1.556499         1.907195        -1.255914
 H         2.459962        -0.543162         2.262980
