19
Iteration:   358
 C         0.138552        -0.145324         0.286394
 C         1.572879         0.079679        -0.034607
 C         1.988964        -1.072080        -1.117339
 C         3.147763        -1.331749        -0.070037
 O         3.813082        -2.509629         0.275667
 C         3.775214        -0.024221         0.405041
 O         3.542973         1.187393        -0.333389
 C         2.174088         1.464595        -0.300957
 C         2.533356        -0.540093         1.047032
 H        -0.204353         0.578866         1.149142
 H        -0.447984         0.125213        -0.696832
 H        -0.033819        -1.125639         0.539939
 H         1.206452        -1.789521        -1.080199
 H         2.175098        -0.706725        -2.154849
 H         4.094473        -3.039069        -0.437127
 H         4.774695        -0.076923         0.805199
 H         1.917820         2.118179         0.490928
 H         1.737779         1.821110        -1.364161
 H         2.250737        -0.721817         2.052186
