19
Iteration:  4081
 C        -0.009524         0.047925         0.502242
 C         1.449486        -0.065504        -0.032613
 C         1.963051        -1.231221        -0.826700
 C         3.226254        -1.285361        -0.035679
 O         3.935926        -2.525022        -0.023040
 C         3.720533         0.018804         0.431847
 O         3.647467         1.168584        -0.417317
 C         2.186778         1.347011        -0.505941
 C         2.490545        -0.423912         1.093292
 H        -0.227170         0.811693         1.198062
 H        -0.595256         0.353374        -0.394089
 H        -0.430496        -1.021164         0.709726
 H         1.276001        -2.217521        -0.786884
 H         2.094480        -1.087275        -1.875879
 H         4.852961        -2.245129         0.020458
 H         4.704048         0.010403         0.771776
 H         1.713079         1.990660         0.241920
 H         1.899173         1.795640        -1.532166
 H         2.194269        -0.389265         2.128439
