19
Iteration:  1789
 C         0.085010         0.157779         0.360062
 C         1.511910        -0.032599         0.027737
 C         1.971420        -1.203629        -0.865647
 C         3.225593        -1.331026        -0.074459
 O         3.989711        -2.498358        -0.032369
 C         3.722534        -0.006150         0.474301
 O         3.472428         1.202318        -0.180601
 C         2.149916         1.270115        -0.636008
 C         2.472322        -0.497397         1.073250
 H         0.200430         0.997209         0.980365
 H        -0.536116         0.430528        -0.579696
 H        -0.453451        -0.698736         0.908707
 H         1.332690        -1.975291        -0.726306
 H         2.014501        -1.026679        -1.970758
 H         4.917014        -2.335003         0.319603
 H         4.729464        -0.116545         0.977231
 H         1.564732         2.186079        -0.236248
 H         2.109453         1.199511        -1.662279
 H         2.197447        -1.014844         2.045486
