19
Iteration:  2893charge 0 multiplicity 1
 C         0.051617        -0.007804         0.326621
 C         1.506928        -0.036555         0.045328
 C         1.999745        -1.201173        -0.827800
 C         3.253431        -1.365085         0.003875
 O         3.940778        -2.535432         0.016800
 C         3.765080         0.076636         0.394235
 O         3.500043         1.198043        -0.457327
 C         2.106613         1.392159        -0.441957
 C         2.577805        -0.402042         1.165539
 H        -0.343668         0.677408         1.093500
 H        -0.386162         0.457671        -0.680012
 H        -0.326346        -1.036226         0.555658
 H         1.345334        -2.069062        -0.939150
 H         2.321516        -0.858644        -1.914187
 H         3.493464        -3.363362        -0.058038
 H         4.794010         0.147004         0.860437
 H         1.783378         2.168761         0.275180
 H         1.810200         1.514029        -1.484001
 H         2.462970        -0.515209         2.305277
