19
Iteration:  2969
 C         0.071367         0.229280         0.429713
 C         1.510245        -0.067457        -0.002106
 C         1.895220        -1.312700        -0.892349
 C         3.190781        -1.340930        -0.045053
 O         4.153243        -2.403338         0.010907
 C         3.744341         0.032805         0.408000
 O         3.500519         1.203179        -0.162011
 C         2.106126         1.246516        -0.656785
 C         2.505402        -0.495509         1.059109
 H         0.134035         1.125813         1.052447
 H        -0.780765         0.408188        -0.354483
 H        -0.430203        -0.602211         0.984709
 H         1.172002        -2.162138        -0.712113
 H         2.062012        -1.221547        -1.994910
 H         3.659815        -3.275437        -0.143215
 H         4.715025        -0.249670         0.769963
 H         1.589997         2.106498        -0.209375
 H         1.985183         1.400446        -1.756202
 H         2.300383        -0.630077         2.136822
