19
Iteration:    14
 C         0.035633         0.145455         0.336508
 C         1.519839        -0.023930        -0.035682
 C         2.066570        -1.098506        -0.942795
 C         3.300218        -1.300874        -0.022257
 O         3.841666        -2.639424         0.070542
 C         3.811542         0.101533         0.482655
 O         3.599015         1.240322        -0.309370
 C         2.064284         1.285359        -0.487160
 C         2.435699        -0.607782         1.046361
 H        -0.128889         0.883228         1.036619
 H        -0.552614         0.280188        -0.537456
 H        -0.295139        -0.839449         0.935422
 H         1.389332        -2.092400        -0.722474
 H         2.147857        -0.901766        -1.966863
 H         4.708454        -2.597605        -0.421950
 H         4.459681         0.263157         1.385217
 H         1.658256         2.078859         0.185740
 H         1.896270         1.514063        -1.630136
 H         2.000585        -1.023963         1.983242
