19
Iteration:  4045
 C         0.074738        -0.010093         0.342459
 C         1.548173         0.030103         0.089349
 C         2.008288        -1.023234        -0.929983
 C         3.204109        -1.415471        -0.066940
 O         3.842343        -2.556488         0.220222
 C         3.802395         0.037046         0.296968
 O         3.447887         1.153105        -0.488274
 C         2.038365         1.388618        -0.360346
 C         2.657214        -0.524198         1.085196
 H        -0.333825         0.682033         1.079594
 H        -0.381609         0.163472        -0.688249
 H        -0.253845        -0.975445         0.714468
 H         1.325575        -1.979305        -0.933410
 H         2.318014        -0.652891        -1.879091
 H         4.658070        -2.729933        -0.303143
 H         4.893715         0.023281         0.602627
 H         1.949188         2.187899         0.449932
 H         1.721600         1.773341        -1.447633
 H         2.589483        -0.639921         2.173957
