19
Iteration:  4684
 C         0.078097         0.077764         0.365020
 C         1.530624         0.020226         0.066746
 C         1.986598        -1.133542        -0.952083
 C         3.128923        -1.397285        -0.019929
 O         4.005123        -2.529384         0.051392
 C         3.746140         0.015170         0.412720
 O         3.510131         1.210974        -0.252997
 C         2.069058         1.297245        -0.520058
 C         2.551190        -0.520011         1.109279
 H        -0.024272         1.043151         1.031281
 H        -0.450737         0.320652        -0.576445
 H        -0.279701        -0.808436         0.826648
 H         1.300786        -1.930421        -1.091576
 H         2.453880        -0.831859        -1.903312
 H         4.349271        -2.545805        -0.826739
 H         4.771077        -0.164988         0.882167
 H         1.593243         2.211861        -0.149033
 H         1.823622         1.272493        -1.676235
 H         2.268752        -0.594831         2.138025
