19
Iteration:  4241
 C         0.092849        -0.025865         0.387243
 C         1.532652        -0.000386        -0.066462
 C         2.020494        -1.188173        -0.948761
 C         3.216503        -1.368350        -0.068668
 O         3.838113        -2.531690         0.192437
 C         3.806369         0.032245         0.370528
 O         3.520494         1.241920        -0.378778
 C         2.056630         1.385698        -0.394474
 C         2.565161        -0.450945         1.017342
 H         0.230422         0.668322         1.315681
 H        -0.797079         0.329284        -0.262550
 H        -0.177188        -1.049472         0.757810
 H         1.396087        -2.098733        -0.887281
 H         2.263077        -1.051805        -2.080888
 H         4.036456        -2.939898        -0.629263
 H         4.732198        -0.002227         0.870486
 H         1.851305         2.081835         0.450506
 H         1.733245         1.858698        -1.253853
 H         2.640375        -0.572605         2.097381
