19
Iteration:   487charge 0 multiplicity 1
 C         0.130599         0.033598         0.265294
 C         1.559742         0.038433         0.008106
 C         1.968575        -1.144260        -0.952858
 C         3.160970        -1.421934        -0.037871
 O         3.839390        -2.683861         0.011662
 C         3.763215         0.058013         0.381716
 O         3.533675         1.313107        -0.213888
 C         2.132738         1.377745        -0.460414
 C         2.573134        -0.462360         1.085689
 H        -0.171976         0.824899         0.912345
 H        -0.456002         0.066136        -0.712377
 H        -0.031431        -0.965551         0.788342
 H         1.106305        -1.817139        -0.869504
 H         2.197792        -1.060767        -2.035032
 H         4.468315        -2.738949         0.805589
 H         4.613126         0.027761         1.005292
 H         1.564094         2.189576         0.125997
 H         2.032735         1.566177        -1.447265
 H         2.376505        -0.715415         2.141235
