19
Iteration:  1653charge 0 multiplicity 1
 C         0.103492        -0.224289         0.346094
 C         1.500359         0.052431        -0.013345
 C         2.146675        -0.939826        -1.116017
 C         3.143068        -1.353614        -0.028798
 O         3.716216        -2.509599         0.272045
 C         3.745430        -0.022461         0.326708
 O         3.539757         1.116113        -0.520191
 C         2.172410         1.413373        -0.235060
 C         2.529580        -0.456479         1.061099
 H        -0.144946         0.435809         1.317019
 H        -0.800776        -0.084217        -0.328088
 H         0.076623        -1.262372         0.614258
 H         1.451956        -1.745548        -1.565223
 H         2.738793        -0.568740        -1.912909
 H         4.710197        -2.493509         0.137428
 H         4.618202         0.008311         0.842573
 H         2.137002         2.043140         0.710793
 H         1.821227         2.110397        -1.140172
 H         2.329705        -0.585362         2.159909
