19
Iteration:   131
 C         0.032903        -0.008653         0.234374
 C         1.539484         0.057514         0.064354
 C         2.179675        -0.955692        -1.013159
 C         3.215040        -1.370899        -0.000679
 O         3.815429        -2.648867         0.258591
 C         3.754822        -0.036996         0.384361
 O         3.465435         1.151922        -0.491562
 C         2.059565         1.433152        -0.282318
 C         2.596930        -0.559992         1.054347
 H        -0.309103         0.625523         1.116237
 H        -0.412565         0.392862        -0.708392
 H        -0.382141        -0.945115         0.534818
 H         1.431779        -1.624753        -1.224751
 H         2.687622        -0.429618        -1.920585
 H         4.430094        -2.887081        -0.531472
 H         4.778702         0.165112         0.817143
 H         1.869197         2.256455         0.448515
 H         1.677398         1.631869        -1.249457
 H         2.326188        -0.749187         2.113907
