19
Iteration:  2947charge 0 multiplicity 1
 C         0.093467         0.252192         0.521010
 C         1.485073        -0.063681        -0.020993
 C         1.861497        -1.317382        -0.994286
 C         3.202840        -1.356150        -0.136066
 O         4.138890        -2.299281         0.039370
 C         3.715902        -0.003455         0.433565
 O         3.581436         1.264949        -0.185987
 C         2.153102         1.207943        -0.666109
 C         2.397284        -0.628710         1.076399
 H         0.097321         1.223108         1.045206
 H        -0.783223         0.225546        -0.216476
 H        -0.246591        -0.576660         1.187051
 H         1.215091        -2.088908        -0.524613
 H         1.783832        -1.412405        -2.110264
 H         3.973044        -3.183477         0.345889
 H         4.651122        -0.060452         1.020576
 H         1.701606         2.172712        -0.405707
 H         2.113293         1.196659        -1.774320
 H         2.207627        -0.830394         2.171857
