19
Iteration:  1420charge 0 multiplicity 1
 C         0.034141         0.036358         0.344260
 C         1.517161         0.037890        -0.030704
 C         2.063156        -1.032175        -0.996249
 C         3.167582        -1.348791        -0.000528
 O         3.889392        -2.519808         0.092765
 C         3.739936        -0.029557         0.446189
 O         3.543821         1.136228        -0.356967
 C         2.146138         1.359880        -0.438616
 C         2.490874        -0.593316         1.105428
 H        -0.047766         0.768148         1.163157
 H        -0.687228         0.261243        -0.445737
 H        -0.223012        -1.034778         0.631302
 H         1.368147        -1.874184        -1.151558
 H         2.441181        -0.627556        -1.952079
 H         4.794832        -2.314374        -0.025940
 H         4.688580        -0.111253         0.888784
 H         1.767236         2.269054         0.251780
 H         1.947400         1.640572        -1.462751
 H         2.244247        -0.813302         2.131775
