19
Iteration:  4763
 C         0.065233        -0.051950         0.323293
 C         1.524577         0.035152         0.109257
 C         2.148015        -0.950425        -1.007885
 C         3.155823        -1.343998         0.054588
 O         3.955737        -2.535489         0.060001
 C         3.757702        -0.034981         0.378685
 O         3.495346         1.062462        -0.485101
 C         2.048103         1.416261        -0.362749
 C         2.550905        -0.469990         1.109180
 H        -0.424884         0.551227         1.212609
 H        -0.520238         0.221650        -0.563434
 H        -0.324572        -1.037648         0.453019
 H         1.497863        -1.679681        -1.321297
 H         2.545258        -0.507119        -1.948614
 H         3.500747        -3.247158         0.561433
 H         4.663118         0.103468         0.906715
 H         1.803077         2.222429         0.373328
 H         1.722044         1.706859        -1.373709
 H         2.458782        -0.773751         2.202240
