19
Iteration:  4557charge 0 multiplicity 1
 C         0.081962        -0.104132         0.510069
 C         1.495898         0.003105        -0.036543
 C         2.123616        -1.136542        -1.071291
 C         3.185887        -1.296122         0.001568
 O         3.856783        -2.515105         0.152864
 C         3.743433         0.056720         0.399504
 O         3.569891         1.160081        -0.467188
 C         2.139993         1.371000        -0.401906
 C         2.503115        -0.390601         1.046023
 H         0.023010         0.459895         1.486488
 H        -0.682568         0.067283        -0.210886
 H        -0.030165        -1.137827         0.795988
 H         1.418053        -1.942356        -1.106953
 H         2.264442        -0.769337        -2.117944
 H         3.374205        -3.051160        -0.559911
 H         4.653743        -0.053336         1.036326
 H         1.950840         1.995697         0.536430
 H         1.630667         1.851631        -1.331422
 H         2.425857        -0.581749         2.085953
