19
Iteration:   833charge 0 multiplicity 1
 C         0.018899         0.111539         0.201024
 C         1.510504         0.054100         0.029901
 C         2.023011        -1.079276        -0.963924
 C         3.300134        -1.370937        -0.047617
 O         3.890301        -2.563515         0.136614
 C         3.774448        -0.019184         0.479758
 O         3.557847         1.126370        -0.396349
 C         2.048802         1.373753        -0.340314
 C         2.506080        -0.591787         1.070953
 H        -0.267411         0.755991         1.174631
 H        -0.342348         0.788263        -0.605763
 H        -0.469093        -0.926299         0.328143
 H         1.459358        -2.064982        -0.998624
 H         2.219924        -0.703863        -1.990507
 H         4.599729        -2.705622        -0.554162
 H         4.646992         0.172577         1.130569
 H         1.844803         2.089162         0.593490
 H         1.704909         1.804190        -1.260763
 H         2.386970        -0.766591         2.140790
