19
Iteration:  3842
 C         0.035300        -0.176994         0.409319
 C         1.521093         0.050027        -0.039220
 C         2.141669        -1.076869        -0.965727
 C         3.218072        -1.377027         0.033064
 O         3.740017        -2.645047         0.088646
 C         3.833914         0.029148         0.366116
 O         3.542586         1.276545        -0.534954
 C         2.034446         1.402424        -0.362735
 C         2.631970        -0.404985         1.091974
 H        -0.270151         0.503172         1.301211
 H        -0.541083        -0.124984        -0.468577
 H        -0.132526        -1.151121         0.947840
 H         1.531554        -1.899891        -1.317672
 H         2.541209        -0.640458        -2.053911
 H         3.416184        -2.872800         0.980638
 H         4.882704         0.058900         0.787185
 H         1.922349         2.155571         0.499043
 H         1.726115         2.049492        -1.163593
 H         2.539872        -0.337583         2.179694
