19
Iteration:  2344
 C        -0.006010         0.143873         0.358014
 C         1.441790        -0.071848         0.042085
 C         1.945741        -1.206460        -0.964757
 C         3.163132        -1.292492        -0.018698
 O         4.057417        -2.448802        -0.076507
 C         3.740587        -0.019226         0.421044
 O         3.545429         1.250710        -0.117039
 C         2.207604         1.221313        -0.647156
 C         2.477608        -0.569333         1.113273
 H        -0.130478         1.032668         1.009124
 H        -0.607422         0.316327        -0.586355
 H        -0.512408        -0.680882         0.885782
 H         1.347042        -2.103636        -0.848027
 H         2.097589        -0.939435        -2.029958
 H         4.543632        -2.510205         0.819070
 H         4.673026         0.051842         1.065585
 H         1.718053         2.136191        -0.271573
 H         2.344703         1.290199        -1.765998
 H         2.373892        -0.699114         2.130645
