19
Iteration:  4280
 C         0.023997         0.100525         0.324341
 C         1.490988        -0.015423         0.079575
 C         1.904439        -1.140094        -0.844479
 C         3.187363        -1.323087        -0.111138
 O         3.970498        -2.490998         0.115303
 C         3.750181         0.016962         0.369439
 O         3.543830         1.212428        -0.324821
 C         2.100984         1.324490        -0.509749
 C         2.649497        -0.637697         1.091113
 H        -0.213132         0.715778         1.170288
 H        -0.415323         0.445942        -0.602016
 H        -0.456648        -0.825480         0.617712
 H         1.115871        -1.898540        -0.644608
 H         1.979080        -0.891959        -1.891218
 H         4.777419        -2.548111        -0.464270
 H         4.753093        -0.012173         0.905802
 H         1.638619         2.210563        -0.050081
 H         1.792838         1.359506        -1.651677
 H         2.648396        -0.812262         2.136348
