19
Iteration:  1514charge 0 multiplicity 1
 C        -0.039262        -0.008950         0.369205
 C         1.482185         0.016010         0.018015
 C         2.101004        -1.122151        -1.002273
 C         3.190181        -1.347540        -0.024524
 O         3.917896        -2.589949         0.110887
 C         3.777019        -0.001792         0.458598
 O         3.595826         1.220802        -0.346652
 C         2.155064         1.409767        -0.409317
 C         2.500377        -0.450607         1.065004
 H        -0.230194         0.705911         1.110306
 H        -0.661751         0.190657        -0.564182
 H        -0.311309        -0.992935         0.658189
 H         1.444420        -1.934964        -1.086582
 H         2.461245        -0.817942        -2.056765
 H         3.740259        -3.084802        -0.755696
 H         4.721964        -0.062544         0.953132
 H         1.767848         2.307391         0.140381
 H         1.773165         1.516326        -1.530444
 H         2.219707        -0.660613         2.173617
