19
Iteration:  3937
 C         0.016452         0.223621         0.377960
 C         1.542162        -0.052206         0.041220
 C         1.928279        -1.216359        -0.847571
 C         3.271817        -1.325363        -0.063011
 O         4.017361        -2.481153        -0.042616
 C         3.765708         0.040210         0.445011
 O         3.486908         1.226987        -0.348828
 C         2.075324         1.239947        -0.473683
 C         2.587419        -0.580271         1.060737
 H        -0.093937         0.939769         1.140195
 H        -0.473494         0.455458        -0.637800
 H        -0.536963        -0.796762         0.658145
 H         1.150576        -2.085506        -0.891240
 H         2.075149        -1.024331        -1.850451
 H         4.032182        -2.881853         0.884497
 H         4.792927         0.085529         0.919978
 H         1.641681         2.091728        -0.071119
 H         1.880792         1.337390        -1.555901
 H         2.361126        -0.811998         2.130894
