19
Iteration:  1560
 C         0.007198         0.292875         0.277447
 C         1.509940        -0.030217         0.085543
 C         1.903851        -1.286998        -0.840661
 C         3.206867        -1.346107        -0.091727
 O         4.169019        -2.394226        -0.045076
 C         3.718389        -0.050702         0.520740
 O         3.536691         1.158754        -0.211068
 C         2.137722         1.307550        -0.559327
 C         2.452149        -0.635894         1.145681
 H        -0.075202         1.109264         0.899333
 H        -0.354133         0.677956        -0.706494
 H        -0.750466        -0.485874         0.549401
 H         1.242259        -2.038869        -0.532992
 H         1.892887        -1.186533        -1.993561
 H         4.257907        -2.764319        -0.919096
 H         4.567882        -0.096435         1.173717
 H         1.651655         2.200422        -0.192793
 H         2.044254         1.307415        -1.792990
 H         2.146914        -0.768115         2.130344
