19
Iteration:  4240
 C         0.094665        -0.029813         0.387690
 C         1.528212         0.006673        -0.061942
 C         2.018948        -1.190670        -0.956070
 C         3.227463        -1.364449        -0.063250
 O         3.835285        -2.535896         0.194999
 C         3.800364         0.031498         0.373784
 O         3.519452         1.241450        -0.391063
 C         2.061533         1.386124        -0.392581
 C         2.560359        -0.450727         1.024363
 H         0.253952         0.651638         1.334047
 H        -0.760512         0.295463        -0.252139
 H        -0.159572        -1.007050         0.760507
 H         1.438937        -2.062944        -0.903786
 H         2.256786        -1.025239        -2.107678
 H         4.028084        -2.943234        -0.658431
 H         4.739447        -0.009859         0.901383
 H         1.822275         2.093210         0.456200
 H         1.720595         1.865336        -1.262620
 H         2.619781        -0.612262         2.083190
