19
Iteration:  1163
 C        -0.016712         0.132770         0.369987
 C         1.473027         0.042806        -0.034325
 C         1.897688        -1.265091        -1.034073
 C         3.046731        -1.392662        -0.103419
 O         4.058882        -2.465430         0.055462
 C         3.701863        -0.048200         0.418173
 O         3.679309         1.219129        -0.157014
 C         2.179249         1.272104        -0.477160
 C         2.503124        -0.500045         1.047729
 H        -0.111928         1.019544         1.156343
 H        -0.760455         0.335006        -0.532408
 H        -0.425936        -0.786580         0.688946
 H         1.065523        -1.901000        -0.824516
 H         2.184194        -1.017101        -2.181502
 H         4.880680        -2.050028         0.173570
 H         4.609505        -0.211914         1.017276
 H         1.804831         2.140111         0.218442
 H         2.216811         1.518744        -1.540890
 H         2.446218        -0.814826         2.165701
