19
Iteration:  4886charge 0 multiplicity 1
 C         0.057945         0.022578         0.341529
 C         1.492596         0.047082        -0.000399
 C         2.060156        -1.174359        -0.901506
 C         3.194548        -1.356352         0.055891
 O         4.046022        -2.479758        -0.079385
 C         3.671305         0.001307         0.427340
 O         3.601056         1.120969        -0.428208
 C         2.156135         1.339154        -0.397264
 C         2.415227        -0.393937         1.177204
 H        -0.177911         0.403639         1.346153
 H        -0.671715         0.519737        -0.409233
 H        -0.417040        -1.065184         0.515212
 H         1.280024        -2.026328        -0.809053
 H         2.309317        -0.960227        -2.000650
 H         3.535909        -3.353500         0.029768
 H         4.647627        -0.010319         0.879171
 H         1.834864         2.171798         0.334441
 H         1.921477         1.721546        -1.384416
 H         1.959932        -0.288696         2.137475
