19
Iteration:  1376
 C         0.055352         0.310073         0.250552
 C         1.480619        -0.035937        -0.016637
 C         1.946760        -1.279309        -0.775566
 C         3.237888        -1.355749        -0.048194
 O         4.099062        -2.472662        -0.160148
 C         3.695061        -0.055111         0.599240
 O         3.520761         1.166079        -0.206429
 C         2.124274         1.293462        -0.527504
 C         2.419691        -0.602178         1.095603
 H         0.134015         1.135949         0.974762
 H        -0.468095         0.688977        -0.664418
 H        -0.747029        -0.468763         0.588217
 H         1.260167        -2.088537        -0.438213
 H         2.047143        -1.179844        -1.880845
 H         4.943851        -2.175954        -0.412103
 H         4.590587         0.011696         1.189862
 H         1.669283         2.321769        -0.118478
 H         1.932012         1.403352        -1.559354
 H         2.344966        -0.859839         2.214149
