19
Iteration:  1834charge 0 multiplicity 1
 C         0.054730        -0.111708         0.280482
 C         1.529418         0.044620         0.007685
 C         2.097673        -1.078569        -0.959646
 C         3.217789        -1.293198         0.022899
 O         3.781242        -2.574522         0.053592
 C         3.801393         0.033618         0.374355
 O         3.507041         1.110886        -0.503769
 C         2.123236         1.412354        -0.305908
 C         2.558242        -0.391936         1.169045
 H        -0.374894         0.386285         1.134851
 H        -0.371509         0.245165        -0.697398
 H        -0.233445        -1.263798         0.219025
 H         1.475324        -1.912122        -0.981324
 H         2.318173        -0.864952        -2.008322
 H         4.371462        -2.561967         0.835341
 H         4.716396         0.062876         0.842378
 H         1.981533         2.016473         0.669345
 H         1.727385         1.842150        -1.136310
 H         2.320574        -0.718992         2.206947
