19
Iteration:  2037charge 0 multiplicity 1
 C         0.094314        -0.234378         0.405774
 C         1.553875         0.004661         0.000293
 C         2.231242        -0.933309        -1.164553
 C         3.214136        -1.302141        -0.004528
 O         3.662491        -2.616197         0.283435
 C         3.805643         0.048842         0.382485
 O         3.484592         1.190880        -0.489677
 C         2.063155         1.438648        -0.303770
 C         2.573479        -0.467371         1.058238
 H        -0.170958         0.546189         1.216926
 H        -0.457998        -0.056409        -0.595919
 H        -0.105850        -1.142549         0.888857
 H         1.506751        -1.747842        -1.286504
 H         2.561675        -0.467907        -2.058554
 H         4.152857        -2.944816        -0.505927
 H         4.719211         0.085073         0.804814
 H         1.785047         2.147899         0.532315
 H         1.871568         1.687117        -1.303182
 H         2.482532        -0.766167         2.081280
