19
Iteration:  1409
 C        -0.021557         0.137823         0.344965
 C         1.423614        -0.064646        -0.025341
 C         2.084719        -1.089512        -0.978531
 C         3.192022        -1.360546         0.024325
 O         3.950058        -2.493103        -0.003659
 C         3.756048        -0.052434         0.518627
 O         3.568269         1.141392        -0.301712
 C         2.118774         1.268146        -0.477762
 C         2.490963        -0.523472         1.075083
 H        -0.037760         0.973353         1.078447
 H        -0.536169         0.610005        -0.494087
 H        -0.624720        -0.624787         0.960862
 H         1.445969        -1.949908        -1.277016
 H         2.425344        -0.648791        -1.936782
 H         4.881778        -2.257365        -0.196057
 H         4.641306        -0.089467         1.083134
 H         1.782821         2.211643         0.203660
 H         1.909191         1.401410        -1.519553
 H         2.418101        -0.598865         2.164895
