19
Iteration:  4615
 C         0.005417        -0.016046         0.304321
 C         1.503318         0.002571         0.041505
 C         2.040312        -1.157967        -0.927788
 C         3.120334        -1.396381         0.067003
 O         3.967216        -2.503054         0.001643
 C         3.767887        -0.003190         0.338219
 O         3.557252         1.175993        -0.419201
 C         2.105332         1.431795        -0.322352
 C         2.619881        -0.460323         1.082811
 H        -0.351848         0.678746         1.035105
 H        -0.646027         0.326384        -0.595199
 H        -0.351193        -1.125700         0.629522
 H         1.127938        -1.901003        -1.065770
 H         2.329250        -0.692381        -1.847203
 H         4.024733        -2.884232         0.865908
 H         4.793316        -0.185975         0.525145
 H         1.817778         2.284707         0.356811
 H         1.611089         1.745117        -1.443936
 H         2.448441        -0.623792         2.168267
