19
Iteration:   318
 C         0.025032        -0.057478         0.399808
 C         1.511544         0.013409         0.012518
 C         2.263486        -0.991784        -1.086482
 C         3.279497        -1.314365        -0.028174
 O         3.659112        -2.699720         0.120199
 C         3.807501         0.081128         0.523848
 O         3.499039         1.172968        -0.381547
 C         2.105564         1.426553        -0.445367
 C         2.512195        -0.516197         1.055341
 H        -0.164242         0.705596         1.201042
 H        -0.646882         0.040824        -0.421999
 H        -0.225602        -0.924379         1.069685
 H         1.749759        -1.951765        -1.188734
 H         2.610143        -0.653545        -2.106736
 H         4.510133        -2.683967        -0.445691
 H         4.676514         0.177936         1.088052
 H         1.775418         2.363964         0.174696
 H         1.891213         1.600195        -1.522952
 H         2.362413        -0.752692         2.115647
