19
Iteration:  1798
 C         0.018904         0.122001         0.385701
 C         1.513477        -0.020124        -0.023185
 C         1.960263        -1.218096        -0.907546
 C         3.230948        -1.341172        -0.070493
 O         3.989300        -2.553825        -0.021889
 C         3.706552        -0.023210         0.443738
 O         3.531613         1.236895        -0.229188
 C         2.132311         1.297482        -0.539704
 C         2.524089        -0.452117         1.112399
 H        -0.317317         0.902035         1.049510
 H        -0.541267         0.396247        -0.618146
 H        -0.385953        -0.834072         0.661331
 H         1.271017        -2.005512        -0.690771
 H         2.102281        -1.080981        -2.022757
 H         4.812552        -2.467869         0.538140
 H         4.765859         0.052791         0.969832
 H         1.697176         2.261045        -0.211987
 H         2.078448         1.469941        -1.658644
 H         2.282001        -0.807223         2.147875
