19
Iteration:  2901charge 0 multiplicity 1
 C         0.047830         0.026501         0.368455
 C         1.500252         0.013378         0.040595
 C         2.035173        -1.201644        -0.846910
 C         3.208198        -1.352925         0.016896
 O         3.994341        -2.511745        -0.020929
 C         3.742054         0.037442         0.425486
 O         3.518162         1.219528        -0.391788
 C         2.064882         1.311464        -0.502331
 C         2.582678        -0.450296         1.118813
 H        -0.214916         0.869797         1.122016
 H        -0.376695         0.313123        -0.512087
 H        -0.484851        -0.921880         0.581872
 H         1.359859        -2.142228        -0.877474
 H         2.294741        -0.976255        -1.814095
 H         3.336599        -3.177702         0.124320
 H         4.782909        -0.021123         0.830692
 H         1.782329         2.237953        -0.035591
 H         1.857405         1.447474        -1.562309
 H         2.434562        -0.363297         2.250171
