19
Iteration:  3844
 C         0.030656        -0.184295         0.408341
 C         1.528468         0.038411        -0.031433
 C         2.139891        -1.069906        -0.966832
 C         3.224358        -1.369727         0.033652
 O         3.738422        -2.632636         0.087998
 C         3.828857         0.027710         0.351805
 O         3.545835         1.256886        -0.529439
 C         2.035983         1.418596        -0.372323
 C         2.635978        -0.409325         1.118548
 H        -0.305144         0.555279         1.341492
 H        -0.595677        -0.135315        -0.460703
 H        -0.118547        -1.131360         0.877713
 H         1.495898        -1.840336        -1.341583
 H         2.503058        -0.655049        -2.050924
 H         3.481238        -2.911808         0.941772
 H         4.877791         0.072317         0.813006
 H         1.902569         2.106389         0.430498
 H         1.742421         2.092489        -1.230600
 H         2.514272        -0.365628         2.187069
