19
Iteration:  1535
 C         0.012251         0.095882         0.324670
 C         1.474953        -0.019548        -0.047367
 C         1.903307        -1.218448        -0.896549
 C         3.126544        -1.276344        -0.030396
 O         4.086361        -2.391234         0.019474
 C         3.711816        -0.033489         0.455660
 O         3.629598         1.131790        -0.244052
 C         2.227957         1.293523        -0.501908
 C         2.435128        -0.511125         1.110206
 H        -0.103663         0.819052         1.109174
 H        -0.671549         0.369877        -0.527137
 H        -0.334694        -0.841184         0.573686
 H         1.291306        -2.078544        -0.722288
 H         2.023918        -1.060098        -2.022900
 H         3.991458        -2.728881        -0.845879
 H         4.595343        -0.206622         1.030409
 H         1.752852         2.009390         0.286260
 H         2.147028         1.678877        -1.573054
 H         2.295494        -0.579074         2.275761
