19
Iteration:   991
 C        -0.052865         0.225325         0.261502
 C         1.474752        -0.042034         0.032030
 C         2.063976        -1.169385        -0.920588
 C         3.175020        -1.356664         0.058953
 O         3.979748        -2.504807        -0.149247
 C         3.718215        -0.044022         0.486187
 O         3.581740         1.082752        -0.303560
 C         2.169402         1.271068        -0.417000
 C         2.443478        -0.433246         1.144960
 H        -0.181447         0.775586         1.136710
 H        -0.579646         0.754961        -0.614856
 H        -0.585760        -0.646976         0.563739
 H         1.476879        -2.061173        -0.935880
 H         2.390605        -0.958694        -1.972406
 H         4.906404        -2.327912         0.238945
 H         4.700909        -0.024528         0.968485
 H         1.780950         2.058194         0.311920
 H         2.075592         1.663005        -1.516826
 H         2.263102        -0.705450         2.265663
