19
Iteration:   529
 C         0.021558        -0.008722         0.288387
 C         1.547976         0.008729         0.001778
 C         2.163951        -0.978696        -1.046985
 C         3.218221        -1.265162         0.028523
 O         3.733314        -2.579896         0.064206
 C         3.802713         0.052693         0.500407
 O         3.523592         1.047294        -0.479036
 C         2.136584         1.336698        -0.314464
 C         2.495623        -0.499597         1.085429
 H        -0.118384         0.556472         1.142386
 H        -0.462931         0.414542        -0.529140
 H        -0.376475        -1.058211         0.663270
 H         1.607964        -1.953727        -1.099023
 H         2.368393        -0.550195        -2.004264
 H         4.608961        -2.602543         0.552557
 H         4.653926         0.213887         1.117687
 H         2.057217         2.137774         0.393296
 H         1.666696         1.644978        -1.265009
 H         2.374312        -0.843679         2.097909
