19
Iteration:  3630
 C         0.093155        -0.130062         0.349445
 C         1.544978         0.041854         0.111461
 C         2.104760        -0.959953        -1.020881
 C         3.193263        -1.345890        -0.000826
 O         3.849790        -2.531592         0.215347
 C         3.847415        -0.032394         0.382438
 O         3.460706         1.110766        -0.577695
 C         2.043017         1.441971        -0.393207
 C         2.622744        -0.481098         1.112317
 H        -0.212376         0.226028         1.251663
 H        -0.608181         0.369966        -0.458979
 H        -0.260188        -1.224952         0.511209
 H         1.314658        -1.700807        -1.436572
 H         2.628212        -0.480622        -1.918120
 H         3.259652        -3.253255         0.163114
 H         4.895762         0.135243         0.828574
 H         1.867720         2.223440         0.410070
 H         1.533425         1.761854        -1.254597
 H         2.363121        -0.543030         2.167969
