19
Iteration:  4092charge 0 multiplicity 1
 C        -0.004411         0.118239         0.474318
 C         1.483002         0.010371         0.014560
 C         1.980332        -1.249049        -0.919892
 C         3.212014        -1.322488         0.025319
 O         3.968313        -2.480504        -0.084664
 C         3.767579         0.023393         0.458775
 O         3.573120         1.133503        -0.393852
 C         2.135320         1.279206        -0.562648
 C         2.451124        -0.452323         1.120448
 H        -0.085226         0.746121         1.339159
 H        -0.705558         0.438192        -0.315471
 H        -0.278367        -0.919149         0.920938
 H         1.411555        -2.251967        -0.610355
 H         2.046393        -1.059207        -1.963923
 H         4.870624        -2.330065         0.093288
 H         4.480598        -0.009580         1.220958
 H         1.961764         2.177247         0.075132
 H         1.999074         1.511876        -1.690152
 H         2.472041        -0.447175         2.203025
