19
Iteration:  1924
 C        -0.034435         0.112213         0.338213
 C         1.486961        -0.006259        -0.005580
 C         1.961237        -1.231941        -0.895142
 C         3.209089        -1.315539        -0.054574
 O         3.986345        -2.530740        -0.094160
 C         3.752444         0.012856         0.495267
 O         3.572401         1.238462        -0.195903
 C         2.153959         1.271335        -0.580007
 C         2.514473        -0.515587         1.110198
 H        -0.150131         0.958955         1.157284
 H        -0.642533         0.383241        -0.476619
 H        -0.629196        -0.731107         0.868204
 H         1.233215        -2.097952        -0.662883
 H         2.136512        -1.131780        -1.911730
 H         4.808242        -2.385597         0.328075
 H         4.734720         0.112473         1.088477
 H         1.675186         2.228032        -0.239203
 H         2.277107         1.192607        -1.610529
 H         2.231347        -0.584697         2.153193
