19
Iteration:  1402charge 0 multiplicity 1
 C        -0.055487         0.228585         0.357751
 C         1.452860        -0.100593         0.016902
 C         2.087676        -1.137028        -1.013450
 C         3.201695        -1.336103        -0.010190
 O         4.001617        -2.520880        -0.048490
 C         3.751611        -0.029518         0.513694
 O         3.577181         1.126768        -0.265476
 C         2.103371         1.226336        -0.481537
 C         2.443790        -0.486819         1.126845
 H        -0.040272         1.119639         1.101915
 H        -0.554095         0.568445        -0.525877
 H        -0.676684        -0.514530         0.803164
 H         1.496161        -2.149436        -1.132843
 H         2.388878        -0.704600        -1.938918
 H         4.861086        -2.237504        -0.294399
 H         4.617099         0.052331         1.198598
 H         1.753813         2.081217         0.020939
 H         1.875114         1.442401        -1.521600
 H         2.328740        -0.547559         2.151583
