19
Iteration:  1812
 C        -0.059059         0.022762         0.285836
 C         1.471682         0.030289         0.039604
 C         1.984650        -1.227021        -0.918076
 C         3.203356        -1.352223        -0.002821
 O         3.920220        -2.565249        -0.009312
 C         3.811759         0.037314         0.400091
 O         3.618811         1.252252        -0.321015
 C         2.134265         1.358869        -0.464640
 C         2.523321        -0.494515         1.091699
 H        -0.179329         0.613457         1.175729
 H        -0.711921         0.338883        -0.577790
 H        -0.294899        -1.094417         0.552020
 H         1.413020        -2.089951        -0.843033
 H         2.109006        -1.035184        -1.991154
 H         4.588888        -2.498224         0.713124
 H         4.702957        -0.046381         0.956101
 H         1.747774         2.145435         0.295846
 H         1.826465         1.582125        -1.410305
 H         2.472690        -0.219401         2.185005
