19
Iteration:   912charge 0 multiplicity 1
 C         0.129824        -0.005221         0.354514
 C         1.556218        -0.035323         0.009416
 C         2.180973        -1.041270        -1.059357
 C         3.275811        -1.310959         0.013648
 O         3.580110        -2.641551         0.063100
 C         3.806608         0.066692         0.482533
 O         3.528810         1.229082        -0.373176
 C         2.077148         1.308874        -0.363906
 C         2.540285        -0.482613         1.079501
 H        -0.072656         0.916164         0.900550
 H        -0.633831         0.003747        -0.556611
 H        -0.227637        -0.925018         0.820533
 H         1.778522        -1.933493        -1.362434
 H         2.574187        -0.415579        -1.957547
 H         4.561224        -2.868027        -0.118104
 H         4.703891         0.242597         1.068362
 H         1.542076         2.065561         0.357711
 H         1.911749         1.662073        -1.441521
 H         2.443414        -0.958701         2.014386
