19
Iteration:  2139charge 0 multiplicity 1
 C         0.043418         0.279915         0.310172
 C         1.478893         0.012212        -0.057601
 C         2.026623        -1.235068        -0.901049
 C         3.241669        -1.321702         0.014209
 O         4.106499        -2.465649        -0.062939
 C         3.649549        -0.035001         0.494371
 O         3.458175         1.081013        -0.352709
 C         2.108155         1.293214        -0.398397
 C         2.443250        -0.606961         1.091068
 H         0.148799         1.094009         0.928968
 H        -0.714989         0.574395        -0.570657
 H        -0.478766        -0.597647         0.866561
 H         1.521123        -2.055040        -0.608812
 H         2.224157        -1.328171        -2.023841
 H         5.016551        -2.167478         0.128987
 H         4.662986         0.145960         1.065965
 H         1.853756         2.091679         0.417274
 H         1.691930         1.786781        -1.384123
 H         2.276477        -0.843668         2.146766
