19
Iteration:  3813
 C         0.136403        -0.112224         0.395101
 C         1.557616         0.041474        -0.048757
 C         2.051330        -1.084889        -1.061803
 C         3.242331        -1.365678        -0.063369
 O         3.810202        -2.571204         0.199210
 C         3.792622         0.046339         0.334499
 O         3.484200         1.193783        -0.450601
 C         2.015898         1.424759        -0.325464
 C         2.647114        -0.516650         1.049363
 H        -0.123455         0.773487         1.159899
 H        -0.498078         0.049876        -0.502207
 H        -0.081436        -1.007173         0.884334
 H         1.301060        -1.876881        -0.936675
 H         2.340001        -0.676370        -2.024853
 H         3.128265        -2.816992         0.926278
 H         4.847248         0.184615         0.771046
 H         1.922292         2.049257         0.533578
 H         1.754475         2.030662        -1.303168
 H         2.518597        -0.678539         2.107042
