19
Iteration:  2856
 C        -0.043668        -0.127417         0.286826
 C         1.537223        -0.010387         0.111967
 C         2.087252        -1.045365        -1.007528
 C         3.188897        -1.318030        -0.036608
 O         3.903765        -2.466686         0.264868
 C         3.825979         0.000920         0.275433
 O         3.460352         1.044395        -0.601834
 C         2.172947         1.494357        -0.239581
 C         2.563542        -0.446026         1.092294
 H        -0.410363         0.428624         1.244549
 H        -0.618847         0.083004        -0.494410
 H        -0.236482        -1.192994         0.545061
 H         1.385652        -1.942963        -1.191623
 H         2.324643        -0.554211        -1.852593
 H         3.630229        -3.210006        -0.235134
 H         4.749792         0.184935         0.758849
 H         2.143231         2.042556         0.689977
 H         1.827749         2.163603        -1.036059
 H         2.531133        -0.627787         2.123303
