19
Iteration:  4753charge 0 multiplicity 1
 C         0.082654        -0.075880         0.317395
 C         1.550127         0.028341         0.025117
 C         2.081243        -0.989804        -1.020072
 C         3.190664        -1.417143         0.041663
 O         3.938231        -2.522725         0.100767
 C         3.784419         0.045399         0.388938
 O         3.497266         1.112614        -0.472193
 C         2.027293         1.386047        -0.336481
 C         2.523871        -0.502671         1.097863
 H        -0.109776         0.583634         1.277520
 H        -0.371850         0.439822        -0.538984
 H        -0.125246        -1.137434         0.495909
 H         1.260303        -1.571542        -1.262087
 H         2.586659        -0.536868        -1.887241
 H         3.287128        -3.285848         0.299310
 H         4.716866         0.046700         0.900359
 H         1.993814         2.158730         0.460457
 H         1.637491         1.740928        -1.271677
 H         2.413426        -0.377748         2.248548
