19
Iteration:  2765
 C        -0.010228         0.192602         0.307425
 C         1.504550         0.020121         0.138202
 C         1.968133        -1.304568        -0.789209
 C         3.194938        -1.400133        -0.079782
 O         4.089908        -2.374088        -0.153436
 C         3.713853        -0.013387         0.434810
 O         3.514587         1.227839        -0.206370
 C         2.139101         1.208112        -0.615943
 C         2.562542        -0.467402         1.185309
 H        -0.218076         0.855536         1.076689
 H        -0.616066         0.526905        -0.639400
 H        -0.348651        -0.753242         0.639831
 H         1.251266        -2.012014        -0.499949
 H         1.867380        -1.196220        -1.920355
 H         3.782247        -3.271304         0.170128
 H         4.790681        -0.190863         0.731245
 H         1.674384         2.188102        -0.388830
 H         2.092244         1.072523        -1.763881
 H         2.325387        -0.500137         2.341083
