19
Iteration:   765charge 0 multiplicity 1
 C        -0.016548        -0.053130         0.350966
 C         1.483977         0.075640        -0.000212
 C         1.902303        -1.133830        -0.975967
 C         3.157377        -1.295708        -0.050160
 O         3.960288        -2.504100         0.014103
 C         3.769884        -0.055642         0.471070
 O         3.693174         1.169013        -0.241174
 C         2.222232         1.416121        -0.551361
 C         2.460336        -0.472466         1.068362
 H        -0.670376         0.603438         1.115601
 H        -0.713949        -0.076753        -0.489046
 H        -0.009762        -1.111951         0.751174
 H         1.077691        -1.924916        -0.831355
 H         2.023148        -0.920708        -2.034257
 H         4.392760        -2.529609         0.840392
 H         4.666050        -0.281339         0.998183
 H         1.911944         2.385954         0.055511
 H         2.180003         1.568832        -1.581304
 H         2.078082        -0.923224         2.009605
