19
Iteration:  3308
 C        -0.048919         0.085138         0.382888
 C         1.436248        -0.010429         0.069586
 C         1.963519        -1.150446        -0.962289
 C         3.167590        -1.329587        -0.044439
 O         4.105450        -2.420866         0.091454
 C         3.771675         0.029787         0.432239
 O         3.588832         1.107980        -0.468533
 C         2.105305         1.306521        -0.430072
 C         2.551014        -0.531036         1.059164
 H        -0.119122         0.858362         1.244377
 H        -0.541293         0.534749        -0.507923
 H        -0.590925        -0.745573         0.789630
 H         1.376824        -2.099194        -0.840981
 H         2.149857        -0.950555        -1.991839
 H         3.571495        -3.198915         0.251643
 H         4.689241        -0.063820         0.933912
 H         1.837858         2.155153         0.324540
 H         1.902003         1.601297        -1.471005
 H         2.406495        -0.688543         2.167049
