19
Iteration:   592charge 0 multiplicity 1
 C         0.117558         0.137037         0.248452
 C         1.505666        -0.042261        -0.032298
 C         1.993738        -1.137996        -0.968397
 C         3.248479        -1.313930        -0.092984
 O         3.851862        -2.568252         0.114213
 C         3.724088         0.040229         0.511170
 O         3.563776         1.216203        -0.257998
 C         2.153553         1.306719        -0.416963
 C         2.517943        -0.546420         1.075567
 H        -0.148016         0.908700         1.041959
 H        -0.531793         0.348137        -0.588445
 H        -0.320312        -0.891299         0.632094
 H         1.357839        -2.093565        -0.773648
 H         2.055960        -0.929035        -2.029693
 H         4.295297        -2.817508        -0.765220
 H         4.674197         0.119814         1.009851
 H         1.810020         2.060687         0.315270
 H         1.779744         1.688796        -1.517878
 H         2.383781        -0.887638         2.046980
