19
Iteration:  4237
 C         0.105007        -0.032149         0.400470
 C         1.513887         0.022761        -0.048704
 C         2.027285        -1.184432        -0.990778
 C         3.255266        -1.339041        -0.044622
 O         3.829729        -2.554482         0.201858
 C         3.779804         0.029115         0.379284
 O         3.516906         1.237974        -0.429566
 C         2.080909         1.388884        -0.379182
 C         2.550095        -0.454117         1.041902
 H         0.243228         0.561322         1.320623
 H        -0.643299         0.223584        -0.248127
 H        -0.123514        -0.965304         0.801009
 H         1.459224        -2.067519        -0.932778
 H         2.214627        -0.945761        -2.083776
 H         4.012645        -2.952469        -0.724004
 H         4.754971        -0.013630         0.984404
 H         1.734505         2.095423         0.446685
 H         1.681731         1.888409        -1.351810
 H         2.507484        -0.733845         2.088139
