19
Iteration:  1578
 C        -0.052128         0.353253         0.248739
 C         1.420996        -0.103155         0.014625
 C         1.983457        -1.247850        -0.860837
 C         3.255315        -1.351874         0.024675
 O         4.088216        -2.488066        -0.059290
 C         3.733103         0.004704         0.439994
 O         3.511466         1.257865        -0.156590
 C         2.141264         1.151817        -0.533657
 C         2.522662        -0.557403         1.135755
 H        -0.076531         1.199652         0.998851
 H        -0.679412         0.702028        -0.644962
 H        -0.609187        -0.449908         0.581963
 H         1.471705        -2.235473        -0.890951
 H         2.112637        -0.908502        -1.910455
 H         4.132077        -2.761984        -0.954370
 H         4.684403        -0.038944         0.848922
 H         1.757785         2.106328        -0.001670
 H         2.071107         1.058857        -1.521406
 H         2.625520        -0.788733         2.284925
