19
Iteration:  2024charge 0 multiplicity 1
 C         0.131654        -0.106235         0.321736
 C         1.571020         0.024202         0.031975
 C         2.108307        -0.927337        -1.016407
 C         3.214981        -1.329503        -0.081099
 O         3.758682        -2.569723         0.255370
 C         3.773378         0.029474         0.388335
 O         3.494222         1.168233        -0.432693
 C         2.054734         1.354807        -0.386570
 C         2.566180        -0.561258         1.053652
 H        -0.211124         0.722471         1.097878
 H        -0.622754        -0.043606        -0.432594
 H        -0.026920        -1.101760         0.710095
 H         1.350865        -1.745124        -1.324409
 H         2.441276        -0.505509        -1.917019
 H         4.568421        -2.786619        -0.278912
 H         4.769990         0.107017         0.892376
 H         1.918663         2.224541         0.407671
 H         1.516123         1.713621        -1.199738
 H         2.337922        -0.778993         2.102302
