19
Iteration:  4505charge 0 multiplicity 1
 C        -0.029514         0.086967         0.298396
 C         1.494484        -0.089685         0.122900
 C         1.960395        -1.141194        -0.846449
 C         3.255147        -1.286709        -0.068928
 O         3.918322        -2.447746         0.079676
 C         3.838123         0.028315         0.405767
 O         3.531584         1.191740        -0.415367
 C         2.110948         1.286917        -0.439379
 C         2.614790        -0.572585         1.101955
 H        -0.194010         0.992112         0.887360
 H        -0.463411         0.481518        -0.670041
 H        -0.438980        -0.869862         0.883091
 H         1.310864        -2.134453        -0.688279
 H         1.889248        -0.843537        -1.879066
 H         4.122136        -2.819450        -0.816503
 H         4.822877        -0.050847         0.895167
 H         1.836207         2.070030         0.212782
 H         1.695180         1.442611        -1.499637
 H         2.431105        -0.720348         2.116954
