19
Iteration:  2985
 C         0.018329         0.142338         0.380407
 C         1.483686        -0.019630         0.033035
 C         1.989336        -1.229116        -0.868746
 C         3.225175        -1.373792        -0.033948
 O         4.063869        -2.467705        -0.028810
 C         3.737889        -0.036541         0.449570
 O         3.514182         1.281794        -0.333712
 C         2.097566         1.245381        -0.558541
 C         2.558767        -0.480127         1.175321
 H        -0.185012         0.943186         1.131153
 H        -0.367421         0.523947        -0.623822
 H        -0.426705        -0.785486         0.739791
 H         1.413759        -2.141797        -0.697159
 H         2.019719        -1.020014        -2.005110
 H         3.453243        -3.267370        -0.178696
 H         4.677073         0.147358         1.014788
 H         1.631254         2.187338        -0.176816
 H         1.968219         1.086422        -1.634605
 H         2.385273        -0.481641         2.264395
