19
Iteration:   283
 C        -0.022691         0.017662         0.273832
 C         1.487405         0.001748         0.023580
 C         2.008646        -1.126248        -1.011520
 C         3.091954        -1.323766        -0.040214
 O         3.903434        -2.524421         0.100581
 C         3.795221        -0.067479         0.398691
 O         3.597659         1.142564        -0.333732
 C         2.196981         1.410094        -0.327837
 C         2.531472        -0.483774         1.115316
 H        -0.332867         0.826021         1.062115
 H        -0.549770         0.355136        -0.682255
 H        -0.323752        -0.956758         0.390834
 H         1.358598        -1.945927        -0.914785
 H         2.222513        -0.943584        -2.121971
 H         4.860331        -2.270242        -0.125960
 H         4.815247        -0.149520         0.796219
 H         1.842754         2.195287         0.388758
 H         1.835348         1.699029        -1.422978
 H         2.321864        -0.648782         2.141219
