19
Iteration:  2342charge 0 multiplicity 1
 C        -0.023073         0.131255         0.346763
 C         1.446522        -0.060912         0.029704
 C         1.963701        -1.200289        -0.957401
 C         3.188186        -1.295078        -0.031948
 O         4.034968        -2.453157        -0.072131
 C         3.729352        -0.023015         0.423300
 O         3.536162         1.245928        -0.118796
 C         2.185636         1.232260        -0.652158
 C         2.502107        -0.569168         1.120080
 H        -0.178472         1.092868         1.045976
 H        -0.495244         0.343731        -0.525727
 H        -0.528695        -0.640980         0.834634
 H         1.363348        -2.155659        -0.807003
 H         2.095978        -0.976329        -1.921108
 H         4.576997        -2.535695         0.716066
 H         4.695764         0.047703         1.088384
 H         1.737760         2.151579        -0.213453
 H         2.422037         1.271089        -1.731001
 H         2.399653        -0.669269         2.183414
