19
Iteration:  2041charge 0 multiplicity 1
 C         0.096760        -0.244142         0.428371
 C         1.510849         0.005860        -0.021760
 C         2.241601        -0.976742        -1.156686
 C         3.191669        -1.267883        -0.011804
 O         3.647057        -2.632224         0.284494
 C         3.834239         0.051251         0.381174
 O         3.491374         1.192646        -0.486097
 C         2.067314         1.458139        -0.278189
 C         2.599941        -0.449262         1.044575
 H        -0.212009         0.443738         1.129115
 H        -0.486248        -0.107799        -0.535043
 H        -0.137457        -1.291107         0.861794
 H         1.597531        -1.785930        -1.420085
 H         2.647944        -0.432604        -2.101520
 H         4.012118        -2.988431        -0.535978
 H         4.846143         0.169806         0.924289
 H         1.831040         2.121326         0.487657
 H         1.862049         1.809193        -1.377549
 H         2.443276        -0.636611         2.127888
