19
Iteration:  3460charge 0 multiplicity 1
 C         0.085441        -0.069522         0.319167
 C         1.495582         0.000010         0.076961
 C         2.073329        -0.922261        -0.990628
 C         3.206676        -1.330750        -0.008432
 O         3.898366        -2.525451         0.197639
 C         3.820846        -0.009118         0.410527
 O         3.415321         1.083941        -0.612019
 C         2.093079         1.394880        -0.356718
 C         2.611737        -0.541299         1.115263
 H        -0.424173         0.441452         1.341544
 H        -0.437136         0.405095        -0.479880
 H        -0.228793        -1.134881         0.301439
 H         1.514250        -1.900031        -1.340940
 H         2.562218        -0.287565        -1.791318
 H         3.368327        -3.158300         0.650200
 H         4.833557         0.101050         0.792403
 H         2.029040         2.253906         0.418643
 H         1.670118         1.837191        -1.282143
 H         2.590193        -0.566931         2.177721
