19
Iteration:  4841
 C         0.020061         0.139576         0.369357
 C         1.454037        -0.061824         0.047062
 C         1.949733        -1.163032        -0.976459
 C         3.249115        -1.335170        -0.073931
 O         4.040137        -2.494865         0.089723
 C         3.796524        -0.062424         0.404968
 O         3.508372         1.283467        -0.256909
 C         2.166924         1.264993        -0.493133
 C         2.515028        -0.501661         1.031739
 H        -0.202049         0.915562         1.170633
 H        -0.601714         0.350695        -0.564332
 H        -0.419900        -0.779538         0.941675
 H         1.211345        -1.991049        -0.935459
 H         2.292367        -0.675309        -1.952298
 H         3.482796        -3.289733        -0.256839
 H         4.769197        -0.001307         0.971138
 H         1.726291         2.190948        -0.031141
 H         1.817623         1.318824        -1.553087
 H         2.477692        -0.823216         2.130495
