19
Iteration:  1956
 C         0.022772         0.285667         0.241808
 C         1.498514        -0.016351         0.078330
 C         1.962036        -1.238701        -0.812962
 C         3.231897        -1.362317        -0.047238
 O         4.086627        -2.418486        -0.171161
 C         3.691043         0.002215         0.545935
 O         3.531774         1.139996        -0.267404
 C         2.099457         1.151775        -0.542190
 C         2.436369        -0.555004         1.252427
 H         0.054563         1.093844         1.031261
 H        -0.348864         0.800836        -0.585087
 H        -0.645549        -0.628597         0.464947
 H         1.274182        -2.121740        -0.680090
 H         2.163144        -1.155420        -1.850512
 H         4.975802        -1.951421        -0.352189
 H         4.739126        -0.122364         1.016453
 H         1.572234         2.127946        -0.369902
 H         2.075449         1.132826        -1.562707
 H         2.078583        -0.738090         2.272347
