19
Iteration:  3128charge 0 multiplicity 1
 C        -0.040803         0.077042         0.294736
 C         1.533262         0.078569         0.098831
 C         1.907766        -1.238363        -0.761075
 C         3.218846        -1.392566        -0.010632
 O         4.096688        -2.387201        -0.163740
 C         3.758836        -0.075694         0.435987
 O         3.564213         1.208023        -0.294084
 C         2.135018         1.235376        -0.569184
 C         2.500885        -0.425910         1.196704
 H        -0.123099         0.837056         1.179123
 H        -0.586251         0.560635        -0.595266
 H        -0.539892        -0.898140         0.456378
 H         1.232011        -2.132333        -0.566286
 H         2.016344        -1.060873        -1.871171
 H         3.721385        -3.298616         0.084454
 H         4.682270        -0.031168         0.938472
 H         1.736611         2.226701        -0.227656
 H         1.865460         1.174253        -1.616429
 H         2.404574        -0.410902         2.274910
