19
Iteration:  3141
 C        -0.048119         0.174717         0.276571
 C         1.447622        -0.089637         0.119106
 C         1.878983        -1.263431        -0.761652
 C         3.178116        -1.303687        -0.047482
 O         4.173351        -2.342332        -0.117403
 C         3.695477         0.005386         0.435737
 O         3.619170         1.109317        -0.340143
 C         2.154780         1.262945        -0.537420
 C         2.550046        -0.449759         1.222417
 H        -0.478761         0.773612         1.200654
 H        -0.406565         0.599733        -0.576493
 H        -0.545418        -0.826772         0.426290
 H         1.114791        -2.089443        -0.506245
 H         1.921056        -1.182295        -1.793128
 H         3.689673        -3.111026        -0.356479
 H         4.669027        -0.181305         0.813649
 H         1.814009         2.189470        -0.095490
 H         2.074333         1.265505        -1.562103
 H         2.337724        -0.546692         2.240402
