19
Iteration:  2116charge 0 multiplicity 1
 C        -0.044502         0.098787         0.347487
 C         1.464650        -0.076351         0.081040
 C         2.001895        -1.122598        -1.040124
 C         3.232653        -1.329498        -0.011534
 O         3.980476        -2.527234         0.109684
 C         3.794354        -0.039745         0.424275
 O         3.572162         1.183653        -0.376687
 C         2.097388         1.317465        -0.409617
 C         2.495731        -0.521457         1.069052
 H        -0.129904         0.895123         1.035056
 H        -0.689354         0.398063        -0.619596
 H        -0.580231        -0.811474         0.737035
 H         1.515245        -2.015770        -1.157874
 H         2.183061        -0.605576        -2.039659
 H         4.907026        -2.374968        -0.270735
 H         4.782472         0.086614         1.016546
 H         1.772241         2.181236         0.301272
 H         1.744883         1.678797        -1.450263
 H         2.284548        -0.667867         2.154399
