19
Iteration:  1179charge 0 multiplicity 1
 C         0.005404         0.206810         0.405571
 C         1.472986        -0.052426        -0.009371
 C         1.947856        -1.176519        -1.019276
 C         3.188597        -1.328989        -0.072306
 O         3.990982        -2.404903         0.027514
 C         3.736176        -0.080324         0.493405
 O         3.575191         1.144364        -0.207592
 C         2.225970         1.314016        -0.525713
 C         2.420579        -0.614495         1.060671
 H        -0.130174         1.035779         1.019042
 H        -0.627594         0.416767        -0.437021
 H        -0.385436        -0.709255         1.008029
 H         1.429171        -2.178909        -1.066386
 H         2.129804        -0.866169        -2.040040
 H         4.915409        -2.103160         0.079012
 H         4.727318        -0.140764         0.947556
 H         1.851861         2.200913        -0.092889
 H         2.083902         1.269269        -1.606999
 H         2.112355        -0.781018         2.036543
