19
Iteration:  1995
 C        -0.094240         0.087849         0.299850
 C         1.458564        -0.017624         0.003858
 C         2.010736        -1.210602        -0.941665
 C         3.167752        -1.340079        -0.043893
 O         4.028813        -2.494927         0.049886
 C         3.741112        -0.044912         0.403716
 O         3.614341         1.176592        -0.309327
 C         2.165252         1.356151        -0.403901
 C         2.508076        -0.470670         1.103408
 H        -0.225087         0.755530         1.137548
 H        -0.763734         0.438949        -0.608339
 H        -0.560652        -0.820616         0.642220
 H         1.297980        -1.945549        -0.674804
 H         2.103236        -1.191870        -2.079795
 H         4.875629        -2.290794        -0.276233
 H         4.644193        -0.067815         0.848951
 H         2.060156         2.065407         0.351369
 H         1.682826         1.644414        -1.419546
 H         2.250529        -0.623526         2.131968
