19
Iteration:  4373
 C         0.028605        -0.042627         0.366042
 C         1.517710         0.001160         0.053838
 C         2.017729        -1.141486        -0.901499
 C         3.196255        -1.321534        -0.027954
 O         3.748871        -2.574813         0.111336
 C         3.873233         0.058389         0.227731
 O         3.558726         1.280050        -0.456805
 C         2.069002         1.306850        -0.309353
 C         2.642910        -0.476811         1.048052
 H        -0.382389         0.525650         1.185748
 H        -0.463932         0.072632        -0.606380
 H        -0.349954        -1.041860         0.749653
 H         1.325072        -2.010545        -0.954928
 H         2.410859        -0.787847        -1.887983
 H         4.448503        -2.628786         0.772467
 H         4.876204         0.070623         0.715685
 H         1.732252         2.266909         0.271540
 H         1.853665         1.520766        -1.390824
 H         2.615487        -0.681506         2.141084
