19
Iteration:  1587
 C        -0.052161         0.281609         0.245447
 C         1.497061        -0.092212         0.012550
 C         2.039167        -1.236640        -0.908073
 C         3.204442        -1.342866        -0.019928
 O         4.004564        -2.522585        -0.033187
 C         3.843265         0.026504         0.440246
 O         3.498153         1.267211        -0.159227
 C         2.093295         1.149689        -0.497519
 C         2.567260        -0.502466         1.161070
 H        -0.009585         1.157128         1.068854
 H        -0.607149         0.685514        -0.628055
 H        -0.628281        -0.537290         0.729125
 H         1.294013        -2.132896        -0.886666
 H         2.233564        -0.920622        -1.890442
 H         4.105422        -2.730435        -0.944387
 H         4.799872        -0.033566         0.989032
 H         1.449339         2.010162        -0.234901
 H         1.965638         1.186910        -1.581377
 H         2.190239        -0.808641         2.220189
