19
Iteration:  4074
 C         0.006545        -0.001659         0.403701
 C         1.464276        -0.036705         0.001532
 C         1.933575        -1.226036        -0.839724
 C         3.201778        -1.358430        -0.056246
 O         3.917269        -2.516177         0.028421
 C         3.745775         0.023479         0.389445
 O         3.626173         1.195831        -0.431785
 C         2.167886         1.361622        -0.444748
 C         2.526841        -0.388795         1.084278
 H        -0.060059         0.670968         1.380636
 H        -0.631349         0.201109        -0.437101
 H        -0.490013        -0.871093         0.849417
 H         1.354991        -2.029352        -0.678384
 H         2.157089        -1.080003        -2.003315
 H         4.830468        -2.369096        -0.013453
 H         4.836189        -0.010530         0.739955
 H         1.866109         2.138553         0.290921
 H         1.881383         1.728785        -1.340855
 H         2.137453        -0.542534         2.157487
