19
Iteration:  2607charge 0 multiplicity 1
 C         0.111779         0.057399         0.420857
 C         1.514527        -0.036907         0.043564
 C         2.070211        -1.081856        -1.017666
 C         3.222635        -1.324214        -0.031741
 O         3.886839        -2.612185         0.100857
 C         3.744046         0.043761         0.344310
 O         3.476809         1.152105        -0.454523
 C         2.058929         1.375938        -0.392333
 C         2.555404        -0.499691         1.089142
 H        -0.116296         0.859518         1.179273
 H        -0.488238         0.148026        -0.471715
 H        -0.243543        -0.975494         0.796643
 H         1.509561        -2.094855        -1.073163
 H         2.393498        -0.766996        -2.051067
 H         4.599388        -2.427972         0.705944
 H         4.729447         0.124713         0.954459
 H         1.767940         2.196896         0.303524
 H         1.658424         1.743852        -1.329942
 H         2.175119        -0.670771         2.120829
