19
Iteration:   947charge 0 multiplicity 1
 C         0.023846         0.074537         0.267034
 C         1.487115         0.110629         0.008872
 C         1.987795        -1.127464        -0.931804
 C         3.180432        -1.367992        -0.034062
 O         3.946041        -2.588408        -0.000717
 C         3.756212        -0.095908         0.390154
 O         3.558584         1.139520        -0.312851
 C         2.164132         1.439762        -0.357924
 C         2.504813        -0.515731         1.100634
 H        -0.351439         0.720189         0.988459
 H        -0.448049         0.346812        -0.742855
 H        -0.235881        -0.915822         0.598195
 H         1.247535        -1.905311        -0.920128
 H         2.184004        -0.814888        -1.998622
 H         4.746179        -2.432546         0.616652
 H         4.626707         0.037565         1.016423
 H         1.884446         2.273841         0.358378
 H         1.826934         1.737092        -1.455108
 H         2.330776        -0.889881         2.194548
