19
Iteration:  4737
 C         0.069016        -0.071490         0.353272
 C         1.511333        -0.028953        -0.029770
 C         2.064187        -1.104812        -1.039481
 C         3.196585        -1.332676        -0.041491
 O         3.906511        -2.546263         0.173090
 C         3.761476         0.001630         0.384487
 O         3.529483         1.227572        -0.436648
 C         2.140671         1.422259        -0.310486
 C         2.535681        -0.416089         1.082443
 H        -0.172175         0.433245         1.268847
 H        -0.609481         0.471114        -0.342438
 H        -0.127795        -1.157704         0.533434
 H         1.438564        -2.113477        -1.044161
 H         2.222961        -0.841752        -2.102971
 H         3.340674        -3.206602        -0.182835
 H         4.779714        -0.020449         0.864657
 H         1.835471         1.876305         0.646197
 H         1.795430         1.854146        -1.352920
 H         2.316662        -0.632897         2.097793
