19
Iteration:   219charge 0 multiplicity 1
 C        -0.019717         0.177948         0.338407
 C         1.456099        -0.041624         0.006551
 C         2.097102        -1.026089        -1.025482
 C         3.244696        -1.313919         0.039358
 O         3.858406        -2.538634         0.086635
 C         3.779045        -0.008863         0.448060
 O         3.527833         1.166740        -0.317838
 C         2.130413         1.248397        -0.475459
 C         2.530175        -0.622985         1.144598
 H        -0.198497         1.001616         1.122523
 H        -0.487066         0.574485        -0.585910
 H        -0.562452        -0.801992         0.543244
 H         1.784756        -2.040631        -1.168682
 H         2.331953        -0.579336        -2.079990
 H         4.564340        -2.566594        -0.637697
 H         4.738129        -0.010251         1.005339
 H         1.759177         2.205275         0.081855
 H         1.902655         1.217918        -1.516646
 H         2.505323        -0.814800         2.189746
