19
Iteration:  4130
 C         0.022735         0.183630         0.393216
 C         1.459289        -0.074455         0.110364
 C         1.949723        -1.219748        -0.928416
 C         3.207568        -1.346563         0.015573
 O         3.977702        -2.502981        -0.062173
 C         3.742917        -0.024940         0.389642
 O         3.536262         1.203667        -0.362153
 C         2.103893         1.268849        -0.537061
 C         2.582567        -0.513877         1.151780
 H        -0.062547         1.118134         1.096195
 H        -0.582656         0.553978        -0.460102
 H        -0.395593        -0.696798         0.811907
 H         1.415690        -2.080542        -0.955131
 H         2.171283        -0.950874        -2.047077
 H         4.830242        -2.358230         0.459955
 H         4.659158         0.236493         0.976254
 H         1.672468         2.083007        -0.010469
 H         1.784062         1.305395        -1.505741
 H         2.595707        -0.509064         2.234692
