19
Iteration:  1464charge 0 multiplicity 1
 C         0.026789        -0.259939         0.310093
 C         1.487485         0.032396        -0.021096
 C         2.191988        -0.997362        -1.106009
 C         3.192980        -1.293593         0.015056
 O         3.599558        -2.591848         0.297842
 C         3.868417         0.042333         0.268686
 O         3.577916         1.233494        -0.439023
 C         2.148558         1.432328        -0.263466
 C         2.589273        -0.438613         1.085940
 H        -0.359897         0.362684         1.154726
 H        -0.626636        -0.180266        -0.554844
 H         0.048077        -1.414215         0.424715
 H         1.515056        -1.888490        -1.293709
 H         2.517835        -0.602897        -2.061167
 H         3.954570        -2.903933        -0.515339
 H         4.840189         0.115434         0.630356
 H         2.102500         1.833416         0.865936
 H         1.738251         2.099570        -0.966799
 H         2.494160        -0.697958         2.067191
