19
Iteration:  1850charge 0 multiplicity 1
 C         0.103838        -0.156844         0.231993
 C         1.557908         0.052171         0.099155
 C         2.159996        -0.952047        -1.048832
 C         3.220107        -1.323665         0.027194
 O         3.731543        -2.591277         0.139333
 C         3.792203         0.052950         0.436484
 O         3.441524         1.052489        -0.599149
 C         2.070854         1.445862        -0.221571
 C         2.569363        -0.489287         1.063533
 H        -0.308436         0.333326         1.229680
 H        -0.560232         0.159256        -0.568798
 H        -0.122052        -1.133438         0.563981
 H         1.347869        -1.836247        -1.185682
 H         2.614638        -0.454021        -1.936723
 H         4.416650        -2.689309         0.891732
 H         4.871229         0.238844         0.895652
 H         2.172612         2.195256         0.557116
 H         1.702782         1.855463        -1.335122
 H         2.531035        -0.411420         2.137091
