19
Iteration:  4873charge 0 multiplicity 1
 C         0.011252         0.045748         0.380113
 C         1.520750        -0.000209        -0.029372
 C         2.018552        -1.162636        -0.888851
 C         3.173254        -1.322070         0.066395
 O         4.007224        -2.405315        -0.053501
 C         3.791875        -0.018841         0.513746
 O         3.524818         1.103183        -0.380966
 C         2.158117         1.349221        -0.513054
 C         2.451988        -0.483891         1.113443
 H        -0.019157         0.635300         1.330254
 H        -0.619134         0.580096        -0.342141
 H        -0.245789        -0.993619         0.457397
 H         1.292548        -2.021977        -0.931522
 H         2.417949        -0.925639        -1.961826
 H         3.400840        -3.113326        -0.255059
 H         4.698492         0.024506         1.180022
 H         1.841889         2.207743         0.118592
 H         1.900091         1.496893        -1.625444
 H         2.452770        -0.745580         2.227275
