19
Iteration:  4151
 C        -0.000550         0.078029         0.368836
 C         1.489166        -0.002298         0.027595
 C         1.971985        -1.246763        -0.841622
 C         3.266008        -1.298450        -0.049417
 O         3.911975        -2.569667         0.017021
 C         3.805072         0.005811         0.364717
 O         3.541997         1.209180        -0.381618
 C         2.090762         1.349409        -0.433189
 C         2.568438        -0.459883         1.039040
 H        -0.199117         1.013821         1.090510
 H        -0.627621         0.343257        -0.491960
 H        -0.408017        -0.837962         0.753718
 H         1.408145        -2.032068        -0.512288
 H         1.849579        -1.308761        -2.024681
 H         4.808191        -2.486707         0.401978
 H         4.903059         0.002473         0.675357
 H         1.803283         1.990697         0.424001
 H         1.793676         1.869805        -1.300655
 H         2.252896        -0.704703         2.056074
