19
Iteration:  2766
 C        -0.005975         0.186780         0.304993
 C         1.507870         0.014165         0.138544
 C         1.974462        -1.298461        -0.795254
 C         3.194549        -1.393342        -0.081982
 O         4.084114        -2.382651        -0.150404
 C         3.716094        -0.007845         0.438665
 O         3.510661         1.226545        -0.204873
 C         2.135756         1.212452        -0.620157
 C         2.555656        -0.466046         1.182317
 H        -0.214863         0.878746         1.113727
 H        -0.599253         0.492783        -0.596215
 H        -0.339154        -0.763199         0.623838
 H         1.225864        -2.010747        -0.464778
 H         1.864739        -1.200629        -1.876857
 H         3.760440        -3.253407         0.142612
 H         4.802344        -0.176995         0.734364
 H         1.690037         2.164153        -0.421135
 H         2.126212         1.096697        -1.750102
 H         2.372898        -0.498910         2.332325
