19
Iteration:   888charge 0 multiplicity 1
 C         0.085653        -0.189090         0.372839
 C         1.536499         0.123755        -0.045528
 C         2.117183        -0.955694        -1.096016
 C         3.253176        -1.335675        -0.072267
 O         3.700902        -2.632711         0.215151
 C         3.761554         0.033236         0.458748
 O         3.575903         1.154391        -0.338402
 C         2.179739         1.439745        -0.357369
 C         2.492459        -0.495175         1.004290
 H        -0.208747         0.659037         1.123563
 H        -0.730851        -0.102984        -0.405202
 H        -0.145170        -1.252504         0.697407
 H         1.400829        -1.798571        -1.004097
 H         2.291066        -0.770738        -2.185739
 H         4.204954        -2.951004        -0.522488
 H         4.733955         0.189846         0.959555
 H         1.890596         2.257878         0.453085
 H         1.967202         1.859598        -1.330495
 H         2.187635        -0.696890         1.972907
