19
Iteration:  4138charge 0 multiplicity 1
 C        -0.035661         0.166842         0.389824
 C         1.492829        -0.066843         0.013263
 C         1.974539        -1.249464        -0.867023
 C         3.212289        -1.361528        -0.043795
 O         3.949540        -2.520554        -0.038614
 C         3.785341         0.051749         0.368742
 O         3.540428         1.197360        -0.370859
 C         2.096085         1.289667        -0.411814
 C         2.578234        -0.483414         1.085825
 H        -0.104035         1.028598         1.162178
 H        -0.524070         0.459568        -0.516197
 H        -0.505090        -0.699745         0.908714
 H         1.305847        -2.121911        -0.722676
 H         2.233577        -0.993404        -1.962743
 H         4.775804        -2.311850         0.464924
 H         4.732805        -0.013497         0.965310
 H         1.725109         2.200369         0.091392
 H         1.890129         1.197180        -1.543877
 H         2.522026        -0.547884         2.233584
