19
Iteration:  4711charge 0 multiplicity 1
 C        -0.015786        -0.043036         0.364763
 C         1.481774         0.023301        -0.030354
 C         1.977080        -1.160356        -0.965087
 C         3.241810        -1.297055        -0.140037
 O         3.899839        -2.468917         0.171148
 C         3.822326         0.029066         0.432974
 O         3.581186         1.233370        -0.308891
 C         2.147112         1.390129        -0.410233
 C         2.566435        -0.569185         0.983155
 H        -0.185159         0.619782         1.223466
 H        -0.759392         0.419446        -0.307135
 H        -0.187287        -1.107907         0.782326
 H         1.401953        -2.134234        -0.705496
 H         2.051568        -1.104344        -2.072843
 H         3.692034        -3.080324        -0.491710
 H         4.766593        -0.081632         0.905230
 H         1.756523         2.129700         0.331591
 H         1.955846         1.490944        -1.404891
 H         2.306051        -0.653362         2.079704
