19
Iteration:  1920
 C         0.009414         0.104643         0.352760
 C         1.503740        -0.002954        -0.040704
 C         1.958016        -1.243868        -0.881847
 C         3.215334        -1.310517        -0.065128
 O         3.959547        -2.535825        -0.072080
 C         3.743571         0.003831         0.508745
 O         3.579573         1.264058        -0.203514
 C         2.146254         1.294964        -0.552700
 C         2.497727        -0.503561         1.098374
 H        -0.168494         0.808097         1.051204
 H        -0.678601         0.341223        -0.509340
 H        -0.385530        -0.808733         0.870279
 H         1.305819        -1.993961        -0.642416
 H         2.086383        -1.081401        -2.016229
 H         4.859224        -2.493387         0.405947
 H         4.686002        -0.027483         0.917397
 H         1.658946         2.194529        -0.198886
 H         2.069458         1.171272        -1.669818
 H         2.191407        -0.675777         2.123906
