19
Iteration:  4102charge 0 multiplicity 1
 C         0.062441         0.158611         0.448494
 C         1.468378         0.022611         0.051190
 C         2.010906        -1.165271        -0.887236
 C         3.213830        -1.336599         0.023541
 O         3.988018        -2.472720        -0.108725
 C         3.725532        -0.025961         0.483416
 O         3.529428         1.097152        -0.376123
 C         2.125272         1.259643        -0.549659
 C         2.503385        -0.474489         1.116633
 H         0.093381         0.842316         1.243141
 H        -0.735456         0.415212        -0.282639
 H        -0.372335        -0.827768         0.855185
 H         1.213029        -2.105121        -0.763606
 H         2.206671        -1.145788        -1.905938
 H         4.865600        -2.253307         0.231814
 H         4.597227         0.215353         1.028115
 H         1.670023         2.294032        -0.331973
 H         1.769877         1.118691        -1.741684
 H         2.235353        -0.615597         2.141043
