19
Iteration:  2588
 C        -0.039098         0.161828         0.335150
 C         1.476118        -0.026216         0.033756
 C         2.008292        -1.177788        -0.902422
 C         3.216461        -1.344041        -0.004426
 O         3.991355        -2.473960         0.015110
 C         3.788100        -0.008035         0.452077
 O         3.520121         1.140925        -0.433810
 C         2.095692         1.258310        -0.428426
 C         2.534501        -0.538009         1.117042
 H        -0.053016         0.885355         1.032481
 H        -0.654321         0.583028        -0.580882
 H        -0.605094        -0.698823         0.745247
 H         1.351320        -1.962795        -0.849574
 H         2.080281        -0.761376        -1.930510
 H         4.970392        -2.403922         0.061264
 H         4.806670         0.033019         0.956927
 H         1.864639         2.023387         0.256750
 H         1.588467         1.521931        -1.431933
 H         2.642453        -0.616444         2.160222
