19
Iteration:  2868
 C        -0.004936        -0.136054         0.287509
 C         1.443770         0.066244         0.023370
 C         2.072751        -1.037640        -0.884777
 C         3.252954        -1.297654         0.010253
 O         3.897009        -2.483080         0.186030
 C         3.831999         0.022731         0.320130
 O         3.499382         1.069500        -0.607468
 C         2.112720         1.419014        -0.206895
 C         2.596895        -0.457153         1.061448
 H        -0.533285         0.504442         1.113558
 H        -0.375137         0.266174        -0.560474
 H        -0.309089        -1.207510         0.350501
 H         1.352220        -1.956749        -0.874816
 H         2.340394        -0.903589        -1.857745
 H         3.461205        -3.265910        -0.278794
 H         4.843556        -0.048430         0.726424
 H         2.108893         2.036425         0.665148
 H         1.674285         1.855857        -1.087601
 H         2.561455        -0.418810         2.168497
