19
Iteration:  3322
 C        -0.028412         0.209379         0.389833
 C         1.480304        -0.009534        -0.001894
 C         1.917924        -1.285962        -0.872634
 C         3.189607        -1.392983         0.012200
 O         4.172711        -2.344835         0.002457
 C         3.743950        -0.052240         0.338321
 O         3.567707         1.141985        -0.358261
 C         2.165079         1.297527        -0.469165
 C         2.433620        -0.486055         1.135522
 H        -0.256344         0.848583         1.151049
 H        -0.624363         0.510173        -0.569676
 H        -0.334558        -0.786464         0.636264
 H         1.259657        -2.026486        -0.684128
 H         2.033505        -1.142064        -1.928328
 H         3.783551        -3.274343        -0.116080
 H         4.685697        -0.081809         0.929781
 H         1.865746         2.064762         0.199795
 H         1.752361         1.578214        -1.546694
 H         2.313422        -0.606502         2.190531
