19
Iteration:   155
 C         0.013105        -0.154145         0.300082
 C         1.470887         0.020806        -0.029780
 C         2.021017        -1.035598        -1.104562
 C         3.194158        -1.244836        -0.088061
 O         3.713239        -2.543390         0.328275
 C         3.839689        -0.034153         0.382230
 O         3.631226         1.182791        -0.406723
 C         2.168404         1.416317        -0.269672
 C         2.579529        -0.479680         0.991833
 H        -0.405988         0.357013         1.081706
 H        -0.502139        -0.002741        -0.600303
 H        -0.128028        -1.239612         0.679420
 H         1.432800        -1.957140        -1.205608
 H         2.230460        -0.492702        -1.991894
 H         4.328209        -2.784220        -0.376173
 H         4.836074        -0.010285         0.923040
 H         1.902775         1.988053         0.604128
 H         1.965056         1.960412        -1.136840
 H         2.520248        -0.716151         2.054417
