19
Iteration:  2695charge 0 multiplicity 1
 C        -0.017732        -0.020172         0.416831
 C         1.538957        -0.013390        -0.013931
 C         2.061430        -1.064056        -0.968215
 C         3.185163        -1.367102        -0.026788
 O         3.984107        -2.533962         0.151918
 C         3.749102         0.022662         0.369746
 O         3.512627         1.154112        -0.531830
 C         2.085717         1.348097        -0.372931
 C         2.603900        -0.456183         1.127690
 H        -0.174820         0.776702         1.209768
 H        -0.764198         0.227692        -0.375481
 H        -0.337354        -1.023306         0.891754
 H         1.404016        -1.928459        -1.192121
 H         2.525802        -0.673656        -1.953558
 H         3.372163        -3.224499        -0.123081
 H         4.684923         0.112262         0.936821
 H         1.921492         2.196048         0.427424
 H         1.630281         1.733380        -1.308660
 H         2.456428        -0.324964         2.129725
