19
Iteration:   614charge 0 multiplicity 1
 C        -0.001212         0.212686         0.335141
 C         1.504365        -0.062352         0.031271
 C         2.131734        -1.112341        -0.987228
 C         3.324892        -1.318409        -0.088734
 O         3.805640        -2.546563         0.099513
 C         3.842478         0.030051         0.507785
 O         3.511785         1.237826        -0.183105
 C         2.074044         1.273180        -0.527250
 C         2.570988        -0.645095         1.046079
 H        -0.152683         1.259956         0.843575
 H        -0.477811         0.358007        -0.637484
 H        -0.748606        -0.630519         0.743616
 H         1.579353        -2.158310        -0.932884
 H         2.228863        -0.808545        -2.029134
 H         3.854434        -2.977441        -0.723594
 H         4.743352         0.125575         1.081137
 H         1.653560         2.208580        -0.117220
 H         1.713428         1.244924        -1.712360
 H         2.302272        -1.020266         1.989306
