19
Iteration:  4306charge 0 multiplicity 1
 C        -0.002633         0.173700         0.401581
 C         1.423137        -0.061733         0.040907
 C         2.041979        -1.209638        -0.888186
 C         3.209288        -1.294577        -0.001267
 O         3.996422        -2.515686        -0.074153
 C         3.768617         0.019837         0.496015
 O         3.562193         1.092773        -0.414238
 C         2.102750         1.266369        -0.487487
 C         2.485812        -0.411586         1.151694
 H         0.030500         0.915668         1.240362
 H        -0.578024         0.257370        -0.483567
 H        -0.483396        -0.672584         0.881334
 H         1.410692        -2.041595        -0.891936
 H         2.319446        -0.906096        -1.981816
 H         4.865574        -2.296146        -0.462180
 H         4.650773         0.007533         1.068034
 H         1.661208         2.154559         0.093817
 H         1.686983         1.418516        -1.492077
 H         2.288867        -0.669942         2.237465
