19
Iteration:  1983charge 0 multiplicity 1
 C        -0.034572         0.170700         0.281806
 C         1.452775        -0.000688        -0.039352
 C         1.914442        -1.308990        -0.808265
 C         3.234740        -1.355952        -0.016817
 O         4.068601        -2.441272        -0.050943
 C         3.731348        -0.021600         0.457054
 O         3.616088         1.164060        -0.318976
 C         2.143170         1.308174        -0.403696
 C         2.420528        -0.521220         1.107053
 H        -0.183586         0.917614         1.115533
 H        -0.590206         0.650731        -0.630796
 H        -0.405868        -0.791484         0.499326
 H         1.354059        -2.248424        -0.673783
 H         2.113482        -1.162237        -1.894376
 H         4.919478        -2.065944        -0.424244
 H         4.597225        -0.157309         1.010095
 H         1.678033         2.056252         0.207290
 H         2.100783         1.738237        -1.446401
 H         2.252263        -0.557338         2.180547
