19
Iteration:   950charge 0 multiplicity 1
 C         0.036417         0.070531         0.259115
 C         1.488564         0.103239         0.016223
 C         1.968870        -1.127547        -0.920332
 C         3.170225        -1.355408        -0.041938
 O         3.975204        -2.573004        -0.006689
 C         3.741322        -0.077478         0.380345
 O         3.559200         1.128537        -0.318137
 C         2.197537         1.446114        -0.362420
 C         2.467903        -0.520831         1.110081
 H        -0.317088         0.838840         0.975990
 H        -0.426534         0.323204        -0.632878
 H        -0.201358        -1.022672         0.453986
 H         1.150698        -1.978984        -0.796957
 H         2.129328        -0.896992        -1.937352
 H         4.680532        -2.393659         0.607561
 H         4.617684        -0.023190         1.057308
 H         2.038821         2.211715         0.360283
 H         1.822340         1.749299        -1.381693
 H         2.243378        -0.968378         2.150202
