19
Iteration:  1729
 C         0.057377         0.154026         0.306546
 C         1.543715         0.033295        -0.003698
 C         1.903075        -1.246751        -0.860977
 C         3.203172        -1.376810        -0.086886
 O         4.059951        -2.429153         0.026499
 C         3.661319        -0.000538         0.512453
 O         3.505222         1.222709        -0.171557
 C         2.206067         1.240470        -0.582403
 C         2.518197        -0.556289         1.078005
 H        -0.287019         0.938775         1.089340
 H        -0.518279         0.435970        -0.547340
 H        -0.294968        -0.746224         0.721428
 H         1.059904        -2.027055        -0.561107
 H         1.953283        -1.183841        -1.951356
 H         4.197343        -2.695366        -0.865966
 H         4.588540        -0.080466         0.945345
 H         1.677544         2.098323        -0.255653
 H         2.152738         1.462274        -1.766485
 H         2.457136        -0.671295         2.124577
