19
Iteration:  1733
 C         0.056608         0.201060         0.335768
 C         1.501543         0.031961        -0.033639
 C         1.892269        -1.233843        -0.847289
 C         3.226823        -1.379654        -0.060506
 O         4.090332        -2.425647         0.010740
 C         3.672978        -0.016809         0.488925
 O         3.506134         1.215450        -0.148286
 C         2.198711         1.239626        -0.621601
 C         2.482396        -0.577310         1.075578
 H        -0.209812         0.929677         1.084407
 H        -0.603807         0.435703        -0.649413
 H        -0.250304        -0.759467         0.821830
 H         1.231876        -1.935090        -0.536593
 H         1.907740        -1.235880        -1.970819
 H         4.303116        -2.698188        -0.937041
 H         4.701344        -0.171655         1.081363
 H         1.525838         2.144232        -0.268089
 H         2.261238         1.298605        -1.670490
 H         2.356229        -0.627287         2.165855
