19
Iteration:   243
 C         0.031945         0.213606         0.219033
 C         1.507811        -0.010310         0.022010
 C         1.955743        -1.196872        -0.974360
 C         3.252134        -1.336226        -0.040758
 O         4.021924        -2.513247         0.057162
 C         3.713287         0.008904         0.494907
 O         3.549467         1.103463        -0.355225
 C         2.127395         1.322535        -0.324106
 C         2.472825        -0.527205         1.107171
 H        -0.117276         0.874059         1.033457
 H        -0.248353         0.783611        -0.622820
 H        -0.736916        -0.720016         0.311382
 H         1.238105        -2.034205        -0.625983
 H         1.938987        -1.158786        -2.080618
 H         4.658776        -2.438054        -0.621196
 H         4.640089        -0.060076         0.964814
 H         1.867833         2.098450         0.489547
 H         1.842879         1.569266        -1.258193
 H         2.182133        -0.860725         2.092649
