19
Iteration:  4256
 C         0.030796         0.031860         0.408417
 C         1.515480        -0.012882        -0.030738
 C         1.952309        -1.239290        -0.980246
 C         3.179644        -1.349951        -0.042277
 O         3.905723        -2.526335         0.194844
 C         3.806994         0.024016         0.233111
 O         3.543394         1.281215        -0.277854
 C         2.115016         1.347996        -0.381375
 C         2.653485        -0.473000         1.033581
 H        -0.278452         0.575691         1.247655
 H        -0.416105         0.396604        -0.591810
 H        -0.450722        -1.020921         0.601627
 H         1.114803        -2.054640        -0.697681
 H         2.045267        -1.087836        -1.999584
 H         4.309902        -2.853579        -0.676636
 H         4.849888        -0.066108         0.632813
 H         1.602552         2.030615         0.283969
 H         1.895561         1.689322        -1.457589
 H         2.239626        -0.433467         2.065642
