19
Iteration:  3178
 C         0.041680         0.221413         0.389524
 C         1.454768        -0.034469         0.040784
 C         2.046933        -1.229790        -0.933265
 C         3.258886        -1.374194         0.010890
 O         4.144735        -2.450386         0.025670
 C         3.678130         0.004079         0.426244
 O         3.456476         1.114628        -0.440160
 C         2.082232         1.315769        -0.427149
 C         2.476809        -0.483004         1.122964
 H        -0.007543         0.987419         1.081923
 H        -0.448240         0.559245        -0.548606
 H        -0.447752        -0.688134         0.649393
 H         1.423753        -2.115961        -0.809982
 H         2.127222        -1.038072        -1.974705
 H         3.656528        -3.233668        -0.241338
 H         4.763175        -0.081915         0.765230
 H         1.831700         2.093971         0.273194
 H         1.677162         1.698874        -1.433305
 H         2.475526        -0.652333         2.266753
