19
Iteration:  1089
 C         0.069506        -0.084964         0.284942
 C         1.536005         0.067666         0.001718
 C         2.183783        -0.954135        -1.123972
 C         3.159617        -1.351316         0.010588
 O         3.819092        -2.599656         0.232093
 C         3.763172        -0.064514         0.418588
 O         3.521765         1.131604        -0.440387
 C         2.080841         1.459781        -0.265445
 C         2.529647        -0.500697         1.075987
 H        -0.368156         0.571928         1.010506
 H        -0.587800         0.218039        -0.660332
 H        -0.100898        -1.142447         0.553502
 H         1.487208        -1.709273        -1.319580
 H         2.513165        -0.358013        -2.053805
 H         3.883425        -3.083784        -0.648946
 H         4.685273        -0.008614         1.006547
 H         2.069325         2.152533         0.562144
 H         1.754968         1.867922        -1.188389
 H         2.473845        -0.690383         2.205827
