19
Iteration:  1436
 C         0.122592        -0.161201         0.342701
 C         1.537568         0.109345         0.047353
 C         2.037283        -1.037349        -1.110945
 C         3.170114        -1.334256        -0.077592
 O         3.801716        -2.605310         0.210631
 C         3.750497        -0.018355         0.423039
 O         3.575797         1.148130        -0.401605
 C         2.142425         1.481377        -0.325690
 C         2.484445        -0.441216         1.030840
 H        -0.421404         0.331875         1.202563
 H        -0.408202         0.090886        -0.602419
 H         0.012285        -1.195960         0.494061
 H         1.243999        -1.842121        -1.046462
 H         2.186731        -0.850977        -2.187432
 H         4.727723        -2.492146        -0.042506
 H         4.737308         0.023779         1.016283
 H         2.044510         2.172886         0.453955
 H         1.761491         1.816507        -1.331750
 H         2.269300        -0.725452         2.102561
