19
Iteration:  3907charge 0 multiplicity 1
 C        -0.014786         0.251199         0.409097
 C         1.477956        -0.011984        -0.033017
 C         2.018783        -1.330516        -0.899824
 C         3.237165        -1.383526        -0.009933
 O         4.040274        -2.478863        -0.058502
 C         3.774282        -0.020233         0.394406
 O         3.518909         1.203866        -0.358168
 C         2.071031         1.294550        -0.427957
 C         2.532881        -0.478453         1.062961
 H        -0.220592         0.862677         1.285657
 H        -0.530842         0.529900        -0.515436
 H        -0.466479        -0.768903         0.793943
 H         1.275106        -2.066797        -0.724149
 H         2.362805        -1.103710        -1.966083
 H         4.257922        -2.893836         0.775066
 H         4.750111        -0.058383         0.988525
 H         1.592023         2.060555         0.351879
 H         1.782057         1.570997        -1.421023
 H         2.226901        -0.390667         2.094618
