19
Iteration:   265charge 0 multiplicity 1
 C        -0.056890         0.145661         0.181736
 C         1.464262         0.063476        -0.028054
 C         1.924087        -1.249538        -0.855239
 C         3.165238        -1.454637        -0.005947
 O         4.054504        -2.524949         0.078671
 C         3.737495        -0.091734         0.350675
 O         3.618063         1.184547        -0.311682
 C         2.180364         1.463256        -0.336755
 C         2.480406        -0.523275         1.055851
 H        -0.195980         0.635094         1.082810
 H        -0.642378         0.590979        -0.561111
 H        -0.438156        -1.006745         0.423347
 H         1.048189        -1.985766        -0.880540
 H         2.196629        -0.997484        -1.887541
 H         4.825710        -2.125746        -0.477006
 H         4.603053        -0.179441         0.940138
 H         1.864281         1.903793         0.684924
 H         1.968621         2.017927        -1.144496
 H         2.410486        -0.455946         2.157568
