19
Iteration:    74charge 0 multiplicity 1
 C         0.008250         0.087787         0.325539
 C         1.506221         0.044174         0.020587
 C         1.815316        -1.222057        -0.930675
 C         3.176961        -1.369459        -0.133633
 O         4.024614        -2.472709         0.072233
 C         3.682323        -0.001324         0.485720
 O         3.637997         1.170262        -0.198007
 C         2.234527         1.359446        -0.573542
 C         2.505083        -0.589610         1.118300
 H        -0.332342         0.943443         1.070203
 H        -0.656509         0.348895        -0.586079
 H        -0.323782        -0.863930         0.509920
 H         1.089041        -1.978105        -0.745010
 H         1.872057        -1.125235        -2.115797
 H         4.864172        -2.164218        -0.221474
 H         4.595262         0.066882         0.988344
 H         1.927468         2.349489        -0.119993
 H         2.173744         1.506883        -1.671698
 H         2.187531        -0.762599         2.122938
