19
Iteration:  3715charge 0 multiplicity 1
 C        -0.052426         0.175526         0.298704
 C         1.496095        -0.008168         0.125112
 C         1.928313        -1.205504        -0.862905
 C         3.212387        -1.311234        -0.024105
 O         4.100545        -2.406193        -0.062363
 C         3.800554        -0.005705         0.379810
 O         3.542602         1.171456        -0.264536
 C         2.089108         1.208917        -0.530705
 C         2.519023        -0.504685         1.170399
 H        -0.263510         1.114417         0.824131
 H        -0.455704         0.410271        -0.732085
 H        -0.551981        -0.692218         0.631067
 H         1.280058        -2.056189        -0.564605
 H         2.157474        -1.106037        -1.879000
 H         3.587699        -3.288772        -0.021090
 H         4.870025        -0.129541         0.786811
 H         1.828382         2.193645        -0.064794
 H         2.035914         1.217679        -1.645717
 H         2.450206        -0.895429         2.181486
