19
Iteration:  4972charge 0 multiplicity 1
 C         0.004797        -0.065269         0.457878
 C         1.475001         0.054600        -0.077584
 C         2.142127        -1.137945        -0.946800
 C         3.181967        -1.361922         0.019769
 O         3.956613        -2.542364         0.013722
 C         3.780519        -0.050879         0.442561
 O         3.574337         1.238994        -0.430338
 C         2.087563         1.452824        -0.419213
 C         2.481404        -0.473462         1.095373
 H        -0.096978         0.822272         1.040213
 H        -0.621189        -0.102043        -0.442012
 H        -0.074079        -0.951865         0.982311
 H         1.439044        -2.011191        -1.154860
 H         2.347423        -1.022050        -2.059841
 H         3.335387        -3.176703         0.437887
 H         4.645412        -0.047542         1.057100
 H         1.780831         2.289953         0.227989
 H         1.854074         1.890357        -1.460402
 H         2.199130        -0.653732         2.125154
