19
Iteration:  1940charge 0 multiplicity 1
 C        -0.090395         0.267688         0.333108
 C         1.421117        -0.101560         0.089578
 C         1.984310        -1.215503        -0.855670
 C         3.230468        -1.347418         0.045024
 O         4.051900        -2.444802        -0.166799
 C         3.735757        -0.040632         0.490723
 O         3.531566         1.191354        -0.188867
 C         2.203918         1.187545        -0.649339
 C         2.487512        -0.516174         1.154036
 H        -0.248481         1.078594         1.058772
 H        -0.443208         0.648720        -0.716305
 H        -0.557677        -0.629919         0.599349
 H         1.508023        -2.192326        -0.814377
 H         2.045591        -0.809249        -1.974659
 H         4.981300        -2.202906        -0.025232
 H         4.590347        -0.069006         1.122502
 H         1.818930         2.134797        -0.297781
 H         1.901093         1.084956        -1.836431
 H         2.532669        -0.606075         2.247453
