19
Iteration:  2787charge 0 multiplicity 1
 C         0.051430         0.028905         0.417471
 C         1.480360        -0.012170         0.010722
 C         1.914180        -1.220355        -0.826344
 C         3.271699        -1.307562        -0.013661
 O         3.969348        -2.493971        -0.051173
 C         3.781600         0.075305         0.452054
 O         3.539648         1.296624        -0.243017
 C         2.160129         1.225384        -0.636851
 C         2.582907        -0.493080         1.090732
 H        -0.055187         0.793328         1.130716
 H        -0.575138         0.418444        -0.541086
 H        -0.314254        -0.879047         0.811141
 H         1.413127        -2.136214        -0.713530
 H         1.928914        -1.004282        -1.997081
 H         3.321683        -3.134097        -0.299332
 H         4.666720         0.079489         1.177641
 H         1.655689         2.140025        -0.223681
 H         1.923304         1.173652        -1.775128
 H         2.133027        -0.648757         2.168352
