19
Iteration:   146charge 0 multiplicity 1
 C        -0.032077        -0.113481         0.272181
 C         1.518753         0.020020         0.015461
 C         2.070063        -0.930717        -1.086022
 C         3.215474        -1.329640        -0.066973
 O         3.748537        -2.578826         0.327296
 C         3.894001         0.029197         0.326282
 O         3.564282         1.154669        -0.410462
 C         2.134019         1.404121        -0.286227
 C         2.539188        -0.525599         1.043278
 H        -0.342909         0.521752         1.014324
 H        -0.665835         0.062495        -0.548368
 H        -0.215946        -1.240907         0.502496
 H         1.375978        -1.846608        -1.271767
 H         2.261026        -0.533894        -2.018578
 H         4.339689        -2.904660        -0.358216
 H         4.809171         0.010754         0.918331
 H         2.049354         2.025392         0.574371
 H         1.873373         1.934465        -1.234554
 H         2.570731        -0.694107         2.100864
