19
Iteration:  4154
 C         0.016492         0.064881         0.364990
 C         1.477236        -0.001128         0.029507
 C         1.951529        -1.236445        -0.865509
 C         3.274261        -1.300998        -0.048953
 O         3.904797        -2.572187         0.030196
 C         3.808143        -0.007393         0.360167
 O         3.543653         1.209932        -0.388080
 C         2.100185         1.390620        -0.439866
 C         2.567734        -0.460525         1.058265
 H        -0.213821         0.916358         1.016775
 H        -0.619704         0.385713        -0.527391
 H        -0.278449        -0.904175         0.777478
 H         1.418729        -2.101379        -0.430308
 H         1.849068        -1.317287        -1.963539
 H         4.779758        -2.519173         0.367361
 H         4.840538         0.098919         0.686962
 H         1.817891         1.884854         0.505085
 H         1.724328         1.876815        -1.290272
 H         2.297397        -0.718682         2.030190
