19
Iteration:  2987
 C         0.017475         0.128698         0.357504
 C         1.484271        -0.016033         0.042157
 C         1.997398        -1.207725        -0.852995
 C         3.225997        -1.361474        -0.022771
 O         4.055386        -2.478131        -0.034637
 C         3.730591        -0.032063         0.449495
 O         3.508822         1.276926        -0.358097
 C         2.118721         1.249520        -0.536631
 C         2.565276        -0.475312         1.159334
 H        -0.203015         0.950317         1.143280
 H        -0.383173         0.464036        -0.508093
 H        -0.455923        -0.831170         0.659249
 H         1.422721        -2.201113        -0.721870
 H         2.053594        -0.987477        -1.879050
 H         3.405806        -3.236871        -0.166491
 H         4.682259         0.103097         1.060124
 H         1.593348         2.168773        -0.200275
 H         1.930317         1.078481        -1.603501
 H         2.397854        -0.515411         2.303769
