19
Iteration:   150
 C        -0.006661        -0.145301         0.282748
 C         1.495106         0.014628        -0.001563
 C         2.041861        -0.986317        -1.095567
 C         3.202609        -1.275220        -0.079622
 O         3.732183        -2.568758         0.338841
 C         3.886993        -0.004817         0.352936
 O         3.595911         1.169709        -0.410316
 C         2.144422         1.406142        -0.280274
 C         2.550005        -0.507875         1.018527
 H        -0.457911         0.517153         1.167228
 H        -0.667025         0.031764        -0.651198
 H        -0.151321        -1.156155         0.551197
 H         1.422045        -1.886890        -1.244349
 H         2.222758        -0.407482        -2.081677
 H         4.350440        -2.843294        -0.411196
 H         4.801979         0.022289         0.902642
 H         1.987297         2.000209         0.687418
 H         1.995222         1.974808        -1.271963
 H         2.607609        -0.688746         2.093010
