19
Iteration:   536charge 0 multiplicity 1
 C         0.068624        -0.046521         0.302145
 C         1.497907        -0.008319         0.025876
 C         2.098209        -0.918631        -1.027109
 C         3.215579        -1.310730        -0.019096
 O         3.781397        -2.553221         0.093767
 C         3.819626         0.027552         0.546681
 O         3.541638         1.028831        -0.525400
 C         2.162440         1.380501        -0.318070
 C         2.440179        -0.516603         1.100755
 H        -0.110237         0.656492         1.228791
 H        -0.428845         0.376165        -0.613085
 H        -0.258570        -1.103460         0.351369
 H         1.432849        -1.827177        -1.162373
 H         2.343435        -0.614211        -2.056256
 H         4.620978        -2.416990         0.521974
 H         4.825923         0.104285         1.066668
 H         2.036981         2.157388         0.462768
 H         1.683185         1.725489        -1.373399
 H         2.185982        -0.767958         2.098368
