19
Iteration:   327
 C         0.012339        -0.077392         0.448562
 C         1.543928         0.073647        -0.061870
 C         2.243638        -1.080597        -1.107666
 C         3.261996        -1.342217         0.057007
 O         3.670771        -2.676985         0.129146
 C         3.832278         0.022283         0.488283
 O         3.511697         1.244942        -0.359862
 C         2.079331         1.381884        -0.415821
 C         2.517532        -0.477921         1.029229
 H        -0.302675         0.875071         1.135772
 H        -0.794720        -0.020068        -0.362787
 H        -0.104700        -1.052547         0.831683
 H         1.757507        -1.946751        -1.448071
 H         2.687515        -0.493549        -1.992549
 H         4.377505        -2.920076        -0.583611
 H         4.755770         0.127025         0.976837
 H         1.873946         2.188868         0.303934
 H         1.845732         1.884598        -1.507944
 H         2.221130        -0.536684         2.049259
