19
Iteration:  2135charge 0 multiplicity 1
 C         0.004432         0.259507         0.336760
 C         1.480157         0.021690        -0.066241
 C         2.046653        -1.223537        -0.921070
 C         3.241763        -1.336957        -0.028684
 O         4.090582        -2.480931        -0.030815
 C         3.642268         0.006732         0.504468
 O         3.465839         1.079079        -0.356147
 C         2.099842         1.292023        -0.391131
 C         2.477840        -0.596971         1.081975
 H         0.036472         1.198552         1.013414
 H        -0.606234         0.524250        -0.575587
 H        -0.443040        -0.556864         0.796133
 H         1.401343        -2.173290        -0.675667
 H         2.314442        -1.246754        -1.978650
 H         5.007820        -2.183551         0.070339
 H         4.556348         0.075344         1.036013
 H         1.915108         2.085199         0.444344
 H         1.783022         1.661883        -1.339177
 H         2.351122        -0.838177         2.157872
