19
Iteration:  1258
 C         0.060466        -0.190102         0.262492
 C         1.546097         0.074411         0.086013
 C         1.983025        -0.961624        -1.180024
 C         3.207560        -1.296608        -0.108588
 O         3.826386        -2.534141         0.353009
 C         3.785810        -0.047809         0.379435
 O         3.558548         1.131746        -0.410012
 C         2.167943         1.522661        -0.240321
 C         2.550157        -0.559934         1.013037
 H        -0.541770         0.400808         1.009145
 H        -0.323474         0.123681        -0.625852
 H        -0.339010        -1.210792         0.231875
 H         1.212650        -1.866628        -1.055131
 H         2.115903        -0.624491        -2.131872
 H         4.165542        -2.929956        -0.506984
 H         4.814721        -0.111273         0.752214
 H         2.063871         2.115589         0.608157
 H         1.719035         2.233584        -1.073488
 H         2.479597        -0.987480         2.126261
