19
Iteration:  3705
 C         0.039789         0.132173         0.315856
 C         1.494509        -0.010322         0.084411
 C         1.936894        -1.149569        -0.846618
 C         3.156617        -1.364370        -0.051424
 O         4.076354        -2.394186         0.006033
 C         3.742357        -0.065698         0.424087
 O         3.545021         1.204252        -0.260882
 C         2.087583         1.300277        -0.548827
 C         2.627285        -0.560083         1.077784
 H        -0.334111         0.948561         0.853806
 H        -0.428658         0.196524        -0.762845
 H        -0.452838        -0.747961         0.727145
 H         1.205889        -2.009696        -0.774347
 H         1.813746        -0.937626        -1.872593
 H         3.607518        -3.260808         0.254876
 H         4.835128        -0.260699         0.752134
 H         1.523168         2.211321        -0.158961
 H         1.939370         1.364218        -1.590913
 H         2.478872        -0.651902         2.148227
