19
Iteration:  3487charge 0 multiplicity 1
 C         0.017696        -0.063594         0.313245
 C         1.485530         0.004869         0.049017
 C         2.026584        -1.134776        -0.899626
 C         3.189427        -1.325396         0.033739
 O         3.926254        -2.556872         0.055284
 C         3.838356        -0.025820         0.354097
 O         3.553811         1.243055        -0.438033
 C         2.084816         1.370711        -0.419171
 C         2.567257        -0.384375         1.108330
 H        -0.303168         0.423051         1.119683
 H        -0.547247         0.377925        -0.604269
 H        -0.288766        -1.107679         0.466775
 H         1.472277        -2.043538        -0.705246
 H         2.197175        -0.938010        -1.949732
 H         3.379452        -3.269996         0.330905
 H         4.828374        -0.082928         0.844606
 H         1.891066         2.151086         0.310102
 H         1.827846         1.711564        -1.430429
 H         2.489046        -0.300295         2.219084
