19
Iteration:   162charge 0 multiplicity 1
 C         0.075407        -0.220030         0.338538
 C         1.499040         0.040025        -0.075225
 C         2.004155        -1.103564        -1.065399
 C         3.171139        -1.301840        -0.115925
 O         3.678101        -2.474487         0.276453
 C         3.779022        -0.004429         0.418001
 O         3.665949         1.194450        -0.377868
 C         2.211468         1.419640        -0.266885
 C         2.580875        -0.424749         0.990504
 H        -0.366257         0.536026         1.199594
 H        -0.514533        -0.070176        -0.666196
 H        -0.058131        -1.198585         0.660726
 H         1.409125        -1.984265        -1.141180
 H         2.371028        -0.800769        -2.188403
 H         4.344580        -2.783325        -0.296041
 H         4.761150        -0.205269         0.918367
 H         1.873170         2.136923         0.589585
 H         1.736225         2.005526        -1.143010
 H         2.220804        -0.815375         1.968052
