19
Iteration:  1428
 C         0.088038        -0.028944         0.347599
 C         1.562842         0.070995         0.005966
 C         2.057033        -1.040401        -1.053581
 C         3.133719        -1.322341        -0.064413
 O         3.865368        -2.573176         0.151496
 C         3.742712        -0.019393         0.420502
 O         3.559451         1.128218        -0.369324
 C         2.138923         1.418405        -0.398641
 C         2.460071        -0.541294         1.106100
 H        -0.328531         0.428385         1.199724
 H        -0.619286         0.198840        -0.557561
 H        -0.047350        -1.110691         0.665731
 H         1.384471        -1.809289        -1.046849
 H         2.333557        -0.706517        -2.125114
 H         4.775899        -2.392138        -0.002496
 H         4.733836         0.094749         0.898404
 H         1.927947         2.216331         0.305568
 H         1.782300         1.809344        -1.463774
 H         2.193875        -0.863068         2.208394
