19
Iteration:  4517charge 0 multiplicity 1
 C         0.047168         0.075731         0.358368
 C         1.505938         0.059373         0.119639
 C         1.950339        -1.117566        -0.921845
 C         3.191941        -1.295370        -0.071475
 O         3.984554        -2.485933         0.102250
 C         3.745077         0.019427         0.356397
 O         3.551398         1.147703        -0.411386
 C         2.093795         1.315475        -0.420449
 C         2.576879        -0.555955         1.155984
 H        -0.338190         0.752837         1.076353
 H        -0.502804         0.005627        -0.660355
 H        -0.410163        -1.018086         0.662278
 H         1.257243        -2.111805        -0.911154
 H         2.236638        -0.884912        -1.925600
 H         4.007258        -2.977879        -0.690392
 H         4.711154         0.087405         0.785954
 H         1.758798         2.254678        -0.001431
 H         1.877016         1.414851        -1.510060
 H         2.636074        -0.922986         2.166638
