19
Iteration:  3477charge 0 multiplicity 1
 C        -0.005916        -0.082837         0.292458
 C         1.553942         0.073043         0.136408
 C         2.112110        -1.080120        -0.964047
 C         3.185332        -1.331198         0.043158
 O         3.917877        -2.579151         0.099483
 C         3.801548         0.046986         0.294366
 O         3.520045         1.127665        -0.478409
 C         2.062981         1.392778        -0.374505
 C         2.604704        -0.408811         1.131243
 H        -0.316266         0.381076         1.115369
 H        -0.611773         0.401979        -0.540756
 H        -0.353201        -1.149657         0.314928
 H         1.293159        -1.708028        -0.973746
 H         2.327545        -0.795603        -1.976114
 H         3.351124        -3.264152         0.481377
 H         4.741758        -0.002744         0.811722
 H         1.804579         2.203520         0.254776
 H         1.622574         1.648817        -1.403725
 H         2.503873        -0.613301         2.225188
