19
Iteration:  1727charge 0 multiplicity 1
 C         0.056937         0.142486         0.296821
 C         1.556410         0.025090         0.008659
 C         1.903841        -1.255792        -0.866724
 C         3.186632        -1.365348        -0.092929
 O         4.046284        -2.433430         0.037354
 C         3.665460         0.006229         0.512307
 O         3.511864         1.227612        -0.180206
 C         2.202381         1.247615        -0.575329
 C         2.528563        -0.546432         1.077693
 H        -0.263669         0.911967         1.048716
 H        -0.485522         0.423182        -0.522339
 H        -0.352205        -0.822821         0.693405
 H         1.051806        -2.047899        -0.593750
 H         1.970660        -1.147794        -1.954270
 H         4.180933        -2.731886        -0.905916
 H         4.606604        -0.037476         0.916586
 H         1.740688         2.135267        -0.210106
 H         2.099872         1.471678        -1.731379
 H         2.461590        -0.709844         2.187101
