19
Iteration:   970charge 0 multiplicity 1
 C        -0.005963         0.099167         0.242665
 C         1.475341         0.012233        -0.040251
 C         1.896100        -1.209084        -0.906211
 C         3.148706        -1.319147        -0.032891
 O         3.991877        -2.369854        -0.073658
 C         3.711538        -0.073582         0.544493
 O         3.697697         1.074140        -0.398482
 C         2.231887         1.349783        -0.312721
 C         2.443069        -0.556201         1.107986
 H        -0.207341         0.721384         1.062377
 H        -0.488387         0.606012        -0.609159
 H        -0.433514        -0.893529         0.455959
 H         1.184068        -2.033946        -0.637668
 H         1.867962        -1.074234        -1.996471
 H         4.667245        -2.286358         0.578384
 H         4.719147        -0.143133         0.991503
 H         1.914328         2.014840         0.529880
 H         1.957024         1.827863        -1.372895
 H         2.121832        -0.455282         2.262544
