19
Iteration:  1900
 C         0.176866        -0.072736         0.357315
 C         1.573266         0.005915        -0.051128
 C         1.992065        -1.184854        -0.966717
 C         3.167822        -1.305442        -0.063115
 O         3.803566        -2.548997         0.050368
 C         3.757834         0.021540         0.402402
 O         3.535762         1.253710        -0.256047
 C         2.131189         1.391893        -0.493038
 C         2.505911        -0.490052         1.048110
 H        -0.054762         0.684998         1.076558
 H        -0.493483         0.022600        -0.485852
 H        -0.150279        -1.018942         0.935884
 H         1.379487        -2.037899        -0.746116
 H         2.157431        -1.055991        -2.006769
 H         4.561675        -2.401438         0.652016
 H         4.556965         0.149897         1.047562
 H         1.748193         2.066973         0.302042
 H         2.067939         1.763452        -1.417670
 H         2.271405        -0.648666         2.077069
