19
Iteration:  2890
 C         0.034357        -0.012519         0.278416
 C         1.533644        -0.051380         0.070558
 C         2.004862        -1.174426        -0.856837
 C         3.249701        -1.351637         0.014819
 O         3.936981        -2.547297         0.038289
 C         3.784449         0.077895         0.373554
 O         3.499299         1.182050        -0.481691
 C         2.114033         1.407963        -0.418381
 C         2.573333        -0.388027         1.176205
 H        -0.346921         0.632965         1.188471
 H        -0.430934         0.334076        -0.554082
 H        -0.273598        -1.062839         0.511122
 H         1.274936        -2.084432        -0.902012
 H         2.195011        -0.888349        -1.827690
 H         3.467812        -3.376404        -0.141275
 H         4.773010         0.211231         0.881444
 H         1.774743         2.082922         0.335521
 H         1.727930         1.653273        -1.408200
 H         2.469612        -0.554327         2.304793
