19
Iteration:  2554charge 0 multiplicity 1
 C         0.040668         0.187800         0.235070
 C         1.478003        -0.017377         0.080810
 C         1.816493        -1.264969        -0.755258
 C         3.217136        -1.365331         0.028811
 O         4.139961        -2.410948        -0.103468
 C         3.710181        -0.071894         0.495342
 O         3.564085         1.191078        -0.327230
 C         2.162657         1.269535        -0.532106
 C         2.498897        -0.485736         1.165138
 H        -0.100413         0.761186         1.051271
 H        -0.515264         0.610685        -0.708454
 H        -0.402105        -0.855326         0.449900
 H         1.212790        -2.041869        -0.443706
 H         1.848166        -1.272666        -1.868044
 H         4.255831        -2.291744        -1.029280
 H         4.715607        -0.230723         1.098231
 H         1.832346         2.139501        -0.023473
 H         1.636973         1.359770        -1.563164
 H         2.310402        -0.489717         2.276140
