19
Iteration:  4822charge 0 multiplicity 1
 C         0.035450         0.107347         0.339682
 C         1.590338        -0.005181        -0.072661
 C         1.977978        -1.256186        -0.980555
 C         3.165809        -1.387465        -0.060162
 O         4.023346        -2.494720         0.029623
 C         3.748373         0.033405         0.380587
 O         3.539153         1.233001        -0.229875
 C         2.048350         1.405979        -0.445154
 C         2.559550        -0.555290         1.108862
 H        -0.153251         0.962293         0.991375
 H        -0.602175         0.279319        -0.613641
 H        -0.220456        -0.825736         1.125320
 H         1.235904        -1.986843        -0.519786
 H         2.236110        -1.061322        -1.977876
 H         3.463170        -3.326432         0.307293
 H         4.808399        -0.083902         0.662242
 H         1.550743         2.163407         0.255806
 H         2.005134         1.704753        -1.446032
 H         2.312755        -0.551538         2.125723
