19
Iteration:  3168
 C         0.006818         0.254559         0.318472
 C         1.481084        -0.073843         0.030129
 C         1.964836        -1.253430        -0.818332
 C         3.213592        -1.313650        -0.004522
 O         4.157588        -2.370907        -0.010603
 C         3.714806         0.023959         0.419410
 O         3.538650         1.080874        -0.448137
 C         2.061977         1.267638        -0.399021
 C         2.530353        -0.567965         1.130881
 H        -0.041115         0.881104         1.109834
 H        -0.587621         0.701739        -0.573259
 H        -0.535328        -0.600363         0.651110
 H         1.226393        -1.947370        -0.565197
 H         2.146363        -1.146266        -1.921496
 H         3.787692        -3.092979        -0.482441
 H         4.654334         0.073395         1.028416
 H         1.768454         2.103422         0.255704
 H         1.790278         1.482339        -1.514361
 H         2.119802        -0.667930         2.182289
