19
Iteration:  4149charge 0 multiplicity 1
 C        -0.012578         0.098140         0.374722
 C         1.500195        -0.004517         0.019098
 C         1.989125        -1.246398        -0.835080
 C         3.255929        -1.304123        -0.053651
 O         3.915402        -2.565492         0.007029
 C         3.808320         0.022197         0.366887
 O         3.540191         1.207757        -0.379104
 C         2.087322         1.314776        -0.414705
 C         2.567488        -0.460113         1.030258
 H        -0.169591         0.991356         1.105032
 H        -0.616582         0.300920        -0.479189
 H        -0.513751        -0.814991         0.765391
 H         1.327526        -2.089390        -0.528563
 H         1.885273        -1.273287        -1.984987
 H         4.843435        -2.452485         0.432714
 H         4.881436        -0.068909         0.685859
 H         1.796056         2.095929         0.359422
 H         1.819457         1.881356        -1.405098
 H         2.246472        -0.694127         2.102296
