19
Iteration:  1223
 C        -0.017133         0.033476         0.267292
 C         1.480751        -0.021620        -0.018669
 C         2.133151        -1.124761        -0.971777
 C         3.204883        -1.330414         0.038482
 O         3.840802        -2.632334         0.029940
 C         3.797626         0.011809         0.436034
 O         3.574338         1.239557        -0.305251
 C         2.086482         1.362017        -0.398303
 C         2.519710        -0.475008         1.148630
 H        -0.205143         0.759599         1.011358
 H        -0.380626         0.457599        -0.660116
 H        -0.478188        -0.967822         0.617737
 H         1.506089        -2.083548        -1.034158
 H         2.377174        -0.856005        -2.016979
 H         4.366534        -2.565512        -0.801319
 H         4.762095        -0.040477         0.985787
 H         1.753870         2.055005         0.385350
 H         1.931424         1.779657        -1.373927
 H         2.393414        -0.529345         2.234436
