19
Iteration:  1941
 C        -0.080776         0.284231         0.328195
 C         1.422404        -0.103110         0.090091
 C         1.985036        -1.219984        -0.849369
 C         3.229332        -1.339490         0.044636
 O         4.059035        -2.439860        -0.168323
 C         3.731215        -0.053535         0.496804
 O         3.532433         1.191876        -0.194110
 C         2.196273         1.184604        -0.648207
 C         2.483148        -0.518209         1.159946
 H        -0.264944         1.018220         1.036047
 H        -0.445293         0.644161        -0.709806
 H        -0.572435        -0.634927         0.601851
 H         1.521723        -2.154828        -0.815967
 H         2.051861        -0.792735        -1.959330
 H         4.965881        -2.223746        -0.061590
 H         4.580487        -0.069936         1.073163
 H         1.808378         2.124017        -0.289669
 H         1.909022         1.049685        -1.813661
 H         2.519051        -0.615767         2.235284
