19
Iteration:   278
 C        -0.059892         0.033816         0.261560
 C         1.504798         0.038296        -0.028656
 C         2.004040        -1.159355        -0.989974
 C         3.103793        -1.375370        -0.005871
 O         3.947189        -2.503778         0.089077
 C         3.734188        -0.070152         0.349986
 O         3.626783         1.139760        -0.307655
 C         2.172483         1.419921        -0.303984
 C         2.544778        -0.462631         1.104214
 H        -0.322767         0.712074         1.014353
 H        -0.543239         0.427998        -0.639409
 H        -0.584080        -1.016208         0.449294
 H         1.190876        -1.980201        -0.870549
 H         2.240181        -1.054516        -2.015277
 H         4.824802        -2.315052        -0.158717
 H         4.761144        -0.186603         0.746632
 H         2.007394         2.257905         0.382037
 H         1.919472         1.780868        -1.293152
 H         2.410135        -0.704521         2.195799
