19
Iteration:   671
 C         0.008561        -0.056583         0.257580
 C         1.468624         0.050980        -0.099789
 C         1.967599        -1.113434        -0.991537
 C         3.176972        -1.271138        -0.060544
 O         3.829890        -2.467147         0.114269
 C         3.738946        -0.032478         0.483881
 O         3.650967         1.078809        -0.384197
 C         2.274150         1.405693        -0.299247
 C         2.488382        -0.495095         1.081110
 H        -0.201095         0.460154         1.193643
 H        -0.754360         0.288565        -0.434091
 H        -0.312564        -1.125501         0.635131
 H         1.296176        -1.995356        -0.775666
 H         2.094951        -0.947755        -2.056180
 H         4.828171        -2.358735         0.025155
 H         4.686057         0.103645         0.992493
 H         2.173577         2.161603         0.451679
 H         1.907208         1.764277        -1.386111
 H         2.245293        -0.798850         2.168593
