19
Iteration:   384charge 0 multiplicity 1
 C        -0.116668        -0.029265         0.196546
 C         1.438727         0.036839         0.046153
 C         2.006797        -1.038449        -0.981352
 C         3.241985        -1.291987        -0.066743
 O         3.880034        -2.515272         0.210145
 C         3.817018        -0.015801         0.367936
 O         3.617662         1.129253        -0.358201
 C         2.190323         1.374421        -0.312520
 C         2.549102        -0.551982         1.040111
 H        -0.277189         0.622965         1.108844
 H        -0.513021         0.482252        -0.644427
 H        -0.585586        -1.105924         0.357096
 H         1.331635        -1.925037        -0.846686
 H         2.003742        -0.686449        -2.030238
 H         4.624331        -2.638643        -0.349132
 H         4.745903        -0.096286         0.957630
 H         1.984002         2.109238         0.513743
 H         1.817160         1.710598        -1.337816
 H         2.516876        -0.907780         2.120147
