19
Iteration:   673
 C        -0.028019        -0.060850         0.269518
 C         1.462526         0.028109        -0.085641
 C         1.974360        -1.097666        -0.995026
 C         3.186114        -1.288024        -0.060217
 O         3.821736        -2.467242         0.114300
 C         3.761220        -0.023060         0.484819
 O         3.651929         1.077560        -0.395792
 C         2.265106         1.394505        -0.295483
 C         2.493155        -0.488969         1.074197
 H        -0.141617         0.515036         1.139247
 H        -0.769455         0.326804        -0.475175
 H        -0.285031        -1.096679         0.556658
 H         1.346958        -1.909945        -0.832675
 H         2.104251        -0.936972        -2.075417
 H         4.836970        -2.360236         0.099327
 H         4.733142         0.107966         1.044919
 H         2.187603         2.167801         0.482742
 H         1.909923         1.787655        -1.350724
 H         2.259377        -0.743226         2.162460
