19
Iteration:   775charge 0 multiplicity 1
 C         0.080832        -0.034868         0.320808
 C         1.526743         0.105815         0.011605
 C         1.923025        -1.107948        -0.966139
 C         3.093133        -1.366475        -0.069318
 O         3.978876        -2.503501        -0.006386
 C         3.696088        -0.033138         0.474463
 O         3.604575         1.173458        -0.249409
 C         2.262890         1.330538        -0.499794
 C         2.410598        -0.484002         1.093310
 H        -0.109531         0.854545         1.100319
 H        -0.527005        -0.055325        -0.589908
 H        -0.110444        -0.997619         0.826577
 H         1.241804        -2.013313        -0.951911
 H         2.116825        -0.816454        -1.986693
 H         4.490731        -2.485972         0.788595
 H         4.671424        -0.023924         0.910318
 H         1.839346         2.350905        -0.041224
 H         2.086053         1.425272        -1.554984
 H         2.183915        -0.681665         2.166881
