19
Iteration:   538
 C         0.080356        -0.040878         0.302145
 C         1.488421        -0.001380         0.035546
 C         2.081930        -0.913038        -1.025739
 C         3.215402        -1.315457        -0.027238
 O         3.794796        -2.548111         0.100244
 C         3.813068         0.011312         0.548824
 O         3.549796         1.027418        -0.531611
 C         2.165967         1.395070        -0.321324
 C         2.436370        -0.525021         1.105750
 H        -0.143663         0.604082         1.168596
 H        -0.425148         0.326983        -0.538748
 H        -0.271107        -1.178512         0.293268
 H         1.354790        -1.808991        -1.177568
 H         2.347445        -0.626539        -2.001416
 H         4.689220        -2.366406         0.534844
 H         4.805056         0.061669         1.022729
 H         2.014379         2.114127         0.449024
 H         1.735981         1.783452        -1.390180
 H         2.133361        -0.718546         2.079228
