19
Iteration:  1807
 C        -0.037649         0.069369         0.330153
 C         1.481789         0.032160        -0.005734
 C         1.964552        -1.230831        -0.939598
 C         3.231818        -1.359157        -0.028808
 O         3.952331        -2.577401        -0.018625
 C         3.775684         0.023468         0.407397
 O         3.597897         1.259708        -0.281036
 C         2.120527         1.345454        -0.484592
 C         2.520020        -0.486430         1.130775
 H        -0.408269         0.674200         1.214933
 H        -0.620314         0.318642        -0.586327
 H        -0.299260        -0.906943         0.579704
 H         1.336256        -2.196970        -0.758545
 H         2.090730        -1.081778        -2.044072
 H         4.634174        -2.394303         0.679609
 H         4.774345        -0.019879         1.023141
 H         1.821542         2.118763         0.171101
 H         1.901951         1.407201        -1.653857
 H         2.423439        -0.369171         2.206438
