19
Iteration:  4823
 C         0.028254         0.109447         0.345879
 C         1.584381        -0.002983        -0.071640
 C         1.980295        -1.247187        -0.978189
 C         3.160807        -1.395054        -0.057641
 O         4.025959        -2.494079         0.034529
 C         3.753354         0.037062         0.375181
 O         3.540955         1.232359        -0.224362
 C         2.040856         1.402657        -0.451076
 C         2.567094        -0.558505         1.106931
 H        -0.134891         0.960719         0.960321
 H        -0.580407         0.291107        -0.585796
 H        -0.226068        -0.805589         1.094319
 H         1.262069        -2.018622        -0.549562
 H         2.208692        -1.053913        -1.995061
 H         3.466033        -3.344796         0.269669
 H         4.775877        -0.081560         0.697098
 H         1.559008         2.152311         0.243635
 H         2.021961         1.700261        -1.474274
 H         2.342758        -0.559580         2.098463
