19
Iteration:  2334charge 0 multiplicity 1
 C        -0.043794         0.137539         0.330481
 C         1.491137        -0.026372        -0.018726
 C         2.011917        -1.212829        -0.870412
 C         3.284297        -1.332309        -0.076673
 O         3.943456        -2.482474        -0.076843
 C         3.721198        -0.002167         0.477682
 O         3.508624         1.233723        -0.133234
 C         2.126257         1.270767        -0.609352
 C         2.556840        -0.547579         1.136334
 H        -0.219918         0.962110         0.966386
 H        -0.490581         0.480855        -0.704952
 H        -0.586787        -0.772528         0.716023
 H         1.487812        -2.141571        -0.746611
 H         2.134194        -1.006978        -2.021925
 H         4.727723        -2.489625         0.506430
 H         4.696638        -0.106426         0.997599
 H         1.704398         2.224483        -0.269292
 H         2.223505         1.197123        -1.728246
 H         2.449859        -0.617195         2.174425
