19
Iteration:  3144
 C        -0.044213         0.192019         0.295549
 C         1.415451        -0.098674         0.120809
 C         1.870115        -1.279235        -0.777685
 C         3.184165        -1.281717        -0.023065
 O         4.177584        -2.330638        -0.106960
 C         3.703701        -0.012957         0.452246
 O         3.608589         1.110404        -0.358255
 C         2.174207         1.257365        -0.530944
 C         2.541386        -0.458547         1.202442
 H        -0.408251         0.737148         1.108594
 H        -0.377994         0.585942        -0.641745
 H        -0.525928        -0.785295         0.366990
 H         1.202300        -2.074453        -0.474548
 H         1.823686        -1.129659        -1.826978
 H         3.715016        -3.148670        -0.452154
 H         4.770816        -0.185613         0.825945
 H         1.823930         2.146309        -0.031534
 H         2.015302         1.356013        -1.647401
 H         2.395832        -0.595977         2.303422
