19
Iteration:   505charge 0 multiplicity 1
 C        -0.008256         0.047761         0.302086
 C         1.539249        -0.040673        -0.051150
 C         2.158252        -1.122325        -0.969637
 C         3.257161        -1.382870         0.016376
 O         3.739066        -2.734857         0.000955
 C         3.839147         0.023485         0.434328
 O         3.526448         1.324339        -0.312118
 C         2.063513         1.393151        -0.391927
 C         2.534488        -0.455571         1.093931
 H        -0.144345         0.846588         1.043357
 H        -0.403815         0.283907        -0.622946
 H        -0.399720        -0.907739         0.879283
 H         1.578884        -2.112673        -1.084387
 H         2.471713        -0.753758        -1.913707
 H         4.504047        -2.811409         0.656434
 H         4.884584         0.057836         0.840019
 H         1.775259         2.158872         0.276343
 H         1.633458         1.733485        -1.460880
 H         2.379559        -0.293228         2.110261
