19
Iteration:  1699
 C        -0.055532        -0.013781         0.266980
 C         1.517597        -0.026567         0.015695
 C         2.079496        -1.107252        -0.937467
 C         3.237073        -1.300267        -0.014357
 O         3.810807        -2.544787         0.174199
 C         3.840484         0.008668         0.358654
 O         3.575614         1.260227        -0.350645
 C         2.093360         1.288642        -0.372563
 C         2.587493        -0.500140         1.066679
 H        -0.356380         0.671072         1.102781
 H        -0.656081         0.351776        -0.686910
 H        -0.424439        -1.007503         0.427343
 H         1.452047        -1.942393        -0.879815
 H         2.244374        -0.816930        -1.991705
 H         4.137065        -2.772312        -0.765953
 H         4.852831        -0.007468         0.813355
 H         1.712723         2.078156         0.418105
 H         1.847802         1.635169        -1.346688
 H         2.546478        -0.632744         2.095263
