19
Iteration:   479
 C         0.099046         0.017467         0.289686
 C         1.582208         0.050227        -0.033794
 C         1.920024        -1.176639        -0.909412
 C         3.145668        -1.388286        -0.079518
 O         3.840685        -2.569332         0.015509
 C         3.762793         0.027794         0.413972
 O         3.560000         1.260438        -0.180083
 C         2.154720         1.379136        -0.497325
 C         2.552431        -0.545526         1.071503
 H        -0.349534         0.803920         1.047164
 H        -0.342703         0.011856        -0.797543
 H        -0.006665        -0.866945         0.756439
 H         1.204295        -1.948497        -0.799785
 H         2.157700        -0.972085        -2.023069
 H         4.379314        -2.512438         0.853481
 H         4.755853        -0.002171         0.856680
 H         1.825629         2.321572         0.042195
 H         1.986197         1.607864        -1.625678
 H         2.509904        -0.677176         2.218773
