19
Iteration:  2521charge 0 multiplicity 1
 C        -0.014197         0.131750         0.381380
 C         1.478990        -0.053038         0.076671
 C         1.983104        -1.221288        -0.917917
 C         3.244112        -1.286269        -0.037207
 O         4.002956        -2.480799         0.010933
 C         3.791805        -0.020726         0.438146
 O         3.531591         1.270405        -0.240806
 C         2.127392         1.274263        -0.570314
 C         2.535802        -0.491817         1.078890
 H        -0.167626         0.891402         1.066340
 H        -0.648416         0.403678        -0.558420
 H        -0.419344        -0.812460         0.889131
 H         1.507226        -2.115098        -0.749052
 H         2.196058        -1.139070        -2.003938
 H         3.505285        -2.994370        -0.646713
 H         4.792921        -0.139918         1.021128
 H         1.779919         2.219148        -0.205839
 H         1.958482         1.104609        -1.719547
 H         2.323389        -0.842595         2.153967
