19
Iteration:  1002charge 0 multiplicity 1
 C         0.013284         0.209609         0.302316
 C         1.492735         0.004547         0.036313
 C         2.114874        -1.112676        -0.904485
 C         3.256671        -1.398270         0.022043
 O         3.955465        -2.603259        -0.113897
 C         3.714819        -0.050646         0.535277
 O         3.528412         1.161454        -0.316856
 C         2.096668         1.330036        -0.463604
 C         2.439490        -0.546095         1.158057
 H        -0.064459         0.963123         0.992953
 H        -0.390827         0.728859        -0.659594
 H        -0.591612        -0.668965         0.394440
 H         1.400281        -1.902713        -0.956074
 H         2.324684        -0.700282        -1.914839
 H         4.908173        -2.431506        -0.001412
 H         4.697202        -0.066858         1.030395
 H         1.749413         2.299729         0.021594
 H         1.733024         1.308926        -1.574510
 H         2.086365        -0.516584         2.287342
