19
Iteration:  1022
 C         0.083352         0.109584         0.290045
 C         1.533776         0.017330         0.069938
 C         2.054498        -1.038349        -0.990937
 C         3.230953        -1.351039        -0.022530
 O         3.843528        -2.658441         0.038646
 C         3.728477         0.030680         0.500754
 O         3.493424         1.202923        -0.245259
 C         2.119999         1.339874        -0.514451
 C         2.538729        -0.599591         1.076757
 H        -0.105419         0.919788         1.009972
 H        -0.566708         0.483117        -0.659390
 H        -0.190747        -0.870862         0.569519
 H         1.440033        -1.851106        -0.987603
 H         2.273922        -0.579283        -2.042708
 H         4.703154        -2.598966        -0.321757
 H         4.580634         0.219818         1.147824
 H         1.577237         2.128182         0.043071
 H         2.009209         1.431032        -1.557623
 H         2.541722        -0.908108         2.154034
