19
Iteration:  3514charge 0 multiplicity 1
 C         0.075992         0.081619         0.373114
 C         1.498927        -0.028152        -0.003118
 C         1.940098        -1.256871        -0.916725
 C         3.155416        -1.303334        -0.037566
 O         4.042673        -2.441947         0.017840
 C         3.738253         0.029563         0.462903
 O         3.576288         1.210344        -0.318298
 C         2.113136         1.304476        -0.538120
 C         2.486425        -0.461059         1.082610
 H        -0.087713         1.013546         1.159787
 H        -0.527642         0.149918        -0.470842
 H        -0.156008        -0.757925         1.056624
 H         1.430859        -2.170941        -0.460737
 H         1.897532        -1.427102        -2.018829
 H         3.522471        -3.219912        -0.036637
 H         4.745956        -0.061774         0.965306
 H         1.944623         2.216208         0.055350
 H         2.073962         1.505110        -1.665188
 H         2.297397        -0.732778         2.099010
