19
Iteration:  2045
 C         0.096460        -0.272657         0.425378
 C         1.488291         0.013998        -0.040158
 C         2.242814        -1.003667        -1.138729
 C         3.184834        -1.264307        -0.028621
 O         3.629477        -2.634168         0.283668
 C         3.872677         0.068449         0.383215
 O         3.503395         1.192205        -0.468835
 C         2.075724         1.452009        -0.298063
 C         2.615386        -0.427669         1.035204
 H        -0.323128         0.507880         1.190907
 H        -0.582114        -0.188346        -0.361417
 H        -0.084157        -1.311773         0.740313
 H         1.625317        -1.917815        -1.572426
 H         2.684923        -0.493821        -1.965973
 H         3.906880        -3.042679        -0.602892
 H         4.838474         0.209818         0.969213
 H         1.860552         2.247697         0.586329
 H         1.758901         1.954593        -1.219400
 H         2.404049        -0.494257         2.100488
