19
Iteration:  4381
 C         0.045696        -0.079513         0.351106
 C         1.574913         0.007339         0.085415
 C         2.083627        -1.164629        -0.942716
 C         3.185966        -1.366432         0.004675
 O         3.725274        -2.619185         0.091651
 C         3.824169         0.049133         0.240602
 O         3.542194         1.274450        -0.429419
 C         2.027703         1.382792        -0.372587
 C         2.683884        -0.403566         1.075530
 H        -0.188576         0.697698         1.207314
 H        -0.543807         0.156637        -0.483634
 H        -0.246275        -1.022154         0.621576
 H         1.399602        -1.913431        -0.941159
 H         2.311471        -0.843985        -1.998702
 H         4.394094        -2.747849         0.808261
 H         4.813197         0.133701         0.615080
 H         1.714156         2.080767         0.413359
 H         1.477268         1.689781        -1.378003
 H         2.612199        -0.622665         2.186450
