19
Iteration:  4404charge 0 multiplicity 1
 C         0.157498        -0.095419         0.437286
 C         1.566051         0.067075        -0.028160
 C         2.069335        -1.105786        -0.919074
 C         3.231816        -1.365858        -0.002323
 O         3.762407        -2.690971         0.041678
 C         3.790238         0.073985         0.386252
 O         3.474656         1.189023        -0.512040
 C         2.060727         1.416129        -0.361123
 C         2.574474        -0.390291         1.069993
 H        -0.033602         0.617110         1.371378
 H        -0.574804         0.139313        -0.280075
 H        -0.013101        -1.126333         0.611961
 H         1.378833        -1.872975        -1.016061
 H         2.408258        -0.736197        -1.927148
 H         4.311108        -2.908791         0.852023
 H         4.769189         0.320601         0.825543
 H         1.600971         2.148920         0.324918
 H         1.725019         1.703179        -1.485104
 H         2.365921        -0.262686         2.199736
