19
Iteration:  3919
 C         0.051380         0.245308         0.354726
 C         1.538274        -0.097522         0.017308
 C         1.994370        -1.267605        -0.895730
 C         3.239790        -1.352768        -0.010516
 O         4.070294        -2.544142        -0.079156
 C         3.710746         0.021546         0.394236
 O         3.497655         1.216787        -0.325062
 C         2.018406         1.308597        -0.479265
 C         2.504367        -0.500443         1.119963
 H         0.211354         1.131594         1.040816
 H        -0.564895         0.707402        -0.397297
 H        -0.561786        -0.660017         0.716518
 H         1.583582        -2.223678        -0.695945
 H         1.900794        -1.337983        -2.080005
 H         4.105371        -2.807571         0.905970
 H         4.715451         0.103217         0.886777
 H         1.758260         2.183432         0.322763
 H         1.745276         1.696432        -1.461014
 H         2.472837        -0.649773         2.167346
