19
Iteration:  1422
 C         0.042105         0.019070         0.338230
 C         1.534634         0.047099        -0.025133
 C         2.067289        -1.026463        -1.010101
 C         3.156158        -1.340587        -0.017191
 O         3.883555        -2.532761         0.106813
 C         3.739190        -0.025421         0.436087
 O         3.545643         1.132768        -0.359931
 C         2.145127         1.373153        -0.435133
 C         2.480622        -0.590216         1.118053
 H        -0.118867         0.739299         1.234913
 H        -0.651663         0.216151        -0.422963
 H        -0.164631        -1.019289         0.611627
 H         1.324875        -1.920234        -1.124034
 H         2.414901        -0.648621        -1.942616
 H         4.821534        -2.324448        -0.018605
 H         4.712246        -0.057768         0.886561
 H         1.787313         2.263606         0.239042
 H         1.921165         1.683912        -1.402345
 H         2.237347        -0.822450         2.088730
