19
Iteration:  2930charge 0 multiplicity 1
 C         0.047183         0.177683         0.526126
 C         1.429884        -0.026812        -0.035510
 C         1.881963        -1.247811        -0.898905
 C         3.188728        -1.314134        -0.104518
 O         4.144578        -2.371887         0.003123
 C         3.702890         0.001627         0.495558
 O         3.527917         1.195682        -0.241024
 C         2.188511         1.187186        -0.649990
 C         2.515169        -0.529358         1.058625
 H         0.048100         1.120117         1.069608
 H        -0.681837         0.208620        -0.389570
 H        -0.371789        -0.627131         1.109915
 H         1.347624        -2.202346        -0.912044
 H         2.030826        -0.874473        -1.984536
 H         3.629106        -3.060778         0.506651
 H         4.687482        -0.067773         0.892352
 H         1.768807         2.221537        -0.472032
 H         2.205031         1.192612        -1.766168
 H         2.270819        -0.870910         2.014552
