19
Iteration:  2623
 C         0.085566        -0.167519         0.467931
 C         1.527241         0.063239        -0.046647
 C         2.131643        -1.091378        -1.039906
 C         3.232450        -1.355412         0.017297
 O         3.759447        -2.593739         0.126999
 C         3.799166         0.014489         0.356411
 O         3.498563         1.213141        -0.479061
 C         2.068515         1.428379        -0.365510
 C         2.569873        -0.445838         1.025450
 H        -0.070587         0.588481         1.244277
 H        -0.786911         0.006849        -0.297525
 H         0.001547        -1.100264         0.954093
 H         1.327509        -1.771178        -1.196597
 H         2.527024        -0.757810        -2.024348
 H         4.146991        -2.626221         1.047048
 H         4.759125         0.042234         0.750023
 H         1.709004         2.158993         0.399522
 H         1.838418         1.877163        -1.392437
 H         2.578422        -0.488738         2.115137
