19
Iteration:   540
 C         0.087836        -0.042052         0.304071
 C         1.488107         0.013211         0.043708
 C         2.061535        -0.920112        -1.021081
 C         3.212006        -1.315377        -0.031485
 O         3.814078        -2.543422         0.108257
 C         3.798365        -0.009959         0.543394
 O         3.558926         1.027540        -0.533210
 C         2.166390         1.407680        -0.335362
 C         2.439164        -0.532130         1.103701
 H        -0.201022         0.523241         1.110491
 H        -0.465107         0.309196        -0.510586
 H        -0.269493        -1.180202         0.265151
 H         1.311001        -1.753180        -1.179307
 H         2.371084        -0.601961        -1.992445
 H         4.718225        -2.334733         0.520860
 H         4.765015         0.015115         0.976904
 H         1.989501         2.104717         0.465676
 H         1.833423         1.824072        -1.319275
 H         2.071651        -0.679916         2.131782
