19
Iteration:  4291charge 0 multiplicity 1
 C        -0.006921         0.133835         0.386006
 C         1.520657         0.016830         0.079390
 C         1.943772        -1.118847        -0.889719
 C         3.291605        -1.318407        -0.041404
 O         3.959873        -2.482168         0.034103
 C         3.770377         0.006813         0.423488
 O         3.490512         1.132041        -0.358834
 C         2.091653         1.245225        -0.503151
 C         2.561716        -0.572430         1.120411
 H        -0.256690         0.974341         1.033355
 H        -0.478744         0.472262        -0.547994
 H        -0.447641        -0.825727         0.576829
 H         1.386887        -2.088667        -0.684628
 H         1.870995        -0.973082        -1.956056
 H         4.809256        -2.284369        -0.514480
 H         4.800664         0.043824         0.903334
 H         1.799963         2.183901        -0.006431
 H         2.000786         1.350971        -1.676768
 H         2.370320        -0.776780         2.131653
