19
Iteration:  3414charge 0 multiplicity 1
 C         0.089006        -0.042220         0.403781
 C         1.546082         0.006528        -0.079941
 C         1.971042        -1.202013        -1.031137
 C         3.182269        -1.387197        -0.019692
 O         4.010909        -2.490701         0.137533
 C         3.744130        -0.029934         0.358919
 O         3.599132         1.257691        -0.342326
 C         2.076117         1.433189        -0.428794
 C         2.480934        -0.480537         1.052002
 H        -0.045401         0.856328         1.203451
 H        -0.608017         0.196429        -0.353627
 H        -0.193542        -0.991987         1.003197
 H         1.219923        -1.959898        -0.741848
 H         2.037212        -1.013754        -2.152759
 H         3.366632        -3.215784         0.339127
 H         4.667469         0.032197         0.811861
 H         1.768477         2.143313         0.376852
 H         1.820845         1.928195        -1.458007
 H         2.280267        -0.622974         2.138504
