19
Iteration:  4003charge 0 multiplicity 1
 C         0.094897        -0.096466         0.439728
 C         1.514694         0.024139        -0.027385
 C         2.135889        -1.112778        -0.963724
 C         3.238751        -1.290583        -0.035829
 O         3.840788        -2.535072         0.171628
 C         3.760533         0.038885         0.385966
 O         3.484855         1.103405        -0.516827
 C         2.137370         1.433007        -0.363109
 C         2.546220        -0.419080         1.044210
 H         0.044830         0.561813         1.233231
 H        -0.746273        -0.053099        -0.306733
 H        -0.178047        -1.023413         1.089170
 H         1.286732        -1.983833        -1.038280
 H         2.385939        -0.724155        -1.898596
 H         3.457017        -3.101585        -0.466900
 H         4.772317         0.113459         0.861902
 H         1.880132         2.034598         0.454553
 H         1.641754         1.896761        -1.285480
 H         2.246949        -0.543367         2.074820
