19
Iteration:  1248charge 0 multiplicity 1
 C         0.064030        -0.138932         0.195614
 C         1.516742         0.083112         0.063925
 C         1.966892        -1.029592        -1.047269
 C         3.152297        -1.313897        -0.112539
 O         3.825521        -2.517045         0.263637
 C         3.841070         0.003045         0.384602
 O         3.540117         1.167912        -0.371505
 C         2.172785         1.453567        -0.226382
 C         2.578051        -0.571823         1.032859
 H        -0.507182         0.375372         1.045575
 H        -0.298001         0.280189        -0.679146
 H        -0.066466        -1.184249         0.207221
 H         1.229416        -1.928311        -1.061333
 H         2.104910        -0.753083        -2.024577
 H         4.156079        -2.993815        -0.575689
 H         4.821941        -0.027466         0.858003
 H         1.989310         2.109848         0.604067
 H         2.000122         1.803508        -1.333084
 H         2.352726        -0.722888         2.162119
