19
Iteration:  2524charge 0 multiplicity 1
 C        -0.019924         0.128346         0.371538
 C         1.468162        -0.052952         0.088057
 C         1.979168        -1.242374        -0.886195
 C         3.242079        -1.306530        -0.037217
 O         4.016783        -2.462872        -0.011499
 C         3.768342        -0.005004         0.460553
 O         3.526351         1.253838        -0.234579
 C         2.154602         1.270194        -0.586030
 C         2.548515        -0.470005         1.084106
 H        -0.166925         0.898723         1.073836
 H        -0.594260         0.446355        -0.609444
 H        -0.432314        -0.751571         0.814889
 H         1.343632        -2.100759        -0.718710
 H         2.228892        -1.231560        -1.976710
 H         3.545790        -2.927840        -0.790104
 H         4.779633        -0.171943         0.945063
 H         1.861918         2.246194        -0.134972
 H         1.900249         1.076930        -1.669527
 H         2.297243        -0.797342         2.031786
