19
Iteration:  2513charge 0 multiplicity 1
 C         0.008983         0.110238         0.420244
 C         1.494916        -0.032475         0.013531
 C         2.019007        -1.167046        -0.965357
 C         3.241697        -1.283430        -0.055594
 O         3.967920        -2.504970         0.057665
 C         3.824323        -0.003571         0.401771
 O         3.547992         1.279531        -0.249335
 C         2.083409         1.258988        -0.550640
 C         2.509199        -0.559907         1.105132
 H        -0.126352         0.921904         1.079850
 H        -0.713666         0.255648        -0.480343
 H        -0.347446        -0.778595         0.898466
 H         1.586730        -2.146134        -0.819510
 H         2.039335        -0.842824        -2.030005
 H         3.464603        -3.267983        -0.318766
 H         4.727136         0.059083         1.069279
 H         1.522601         2.177822        -0.273700
 H         2.095749         1.316016        -1.658918
 H         2.463560        -0.760719         2.134270
