19
Iteration:  4167
 C         0.082953        -0.009183         0.340329
 C         1.547042         0.016807        -0.027871
 C         1.917373        -1.212436        -0.877345
 C         3.207021        -1.352195        -0.076787
 O         3.843066        -2.573386         0.084596
 C         3.789724         0.058377         0.341228
 O         3.537354         1.207867        -0.476306
 C         2.125359         1.431538        -0.306346
 C         2.573041        -0.475245         1.105502
 H        -0.176337         0.603368         1.117205
 H        -0.528062         0.005773        -0.603377
 H        -0.183902        -1.042058         0.739132
 H         1.216642        -2.153699        -0.660397
 H         1.999519        -1.078851        -1.900423
 H         4.824378        -2.372884         0.250730
 H         4.570036         0.094427         1.045529
 H         1.924221         2.278480         0.391718
 H         1.807070         1.834583        -1.331851
 H         2.682782        -0.618443         2.183083
