19
Iteration:  1491
 C         0.160268        -0.123007         0.297937
 C         1.575650         0.006158        -0.005932
 C         2.148648        -0.906792        -1.037642
 C         3.262891        -1.381355        -0.019595
 O         3.704902        -2.629775         0.230880
 C         3.805731         0.060534         0.420078
 O         3.448770         1.161767        -0.413932
 C         2.045133         1.424112        -0.357334
 C         2.610831        -0.535856         1.060344
 H        -0.024191         0.647704         1.047749
 H        -0.458494         0.053713        -0.620958
 H        -0.055540        -1.093332         0.574797
 H         1.415961        -1.668710        -1.300698
 H         2.476532        -0.392997        -1.991675
 H         3.463349        -3.196034        -0.462000
 H         4.760913         0.317708         0.981067
 H         1.764909         2.178687         0.462002
 H         1.548838         1.851373        -1.340584
 H         2.474431        -0.546916         2.247946
