19
Iteration:  2263charge 0 multiplicity 1
 C         0.026996        -0.126892         0.271932
 C         1.515513         0.004886         0.034880
 C         2.049696        -0.897764        -1.131324
 C         3.177696        -1.360057        -0.116178
 O         3.936671        -2.464564         0.362669
 C         3.759511        -0.003100         0.454413
 O         3.529672         1.083269        -0.481959
 C         2.135868         1.422965        -0.253525
 C         2.484721        -0.593167         0.968110
 H        -0.240018         0.577731         1.198880
 H        -0.565034         0.144169        -0.528756
 H        -0.228565        -1.131399         0.645773
 H         1.324127        -1.677206        -1.505409
 H         2.417269        -0.349432        -1.919593
 H         4.199604        -3.091865        -0.349008
 H         4.702910        -0.033100         0.895703
 H         2.111281         2.117108         0.684019
 H         1.807752         2.137702        -1.065663
 H         2.345505        -0.763995         2.073288
