19
Iteration:  2661
 C         0.156981        -0.343212         0.399348
 C         1.566432         0.051277         0.009841
 C         2.055814        -0.974269        -0.975212
 C         3.179199        -1.268774        -0.089210
 O         3.680957        -2.546765         0.190428
 C         3.845506         0.066488         0.349983
 O         3.511577         1.170856        -0.517339
 C         2.106955         1.463032        -0.407206
 C         2.660039        -0.429508         1.115836
 H        -0.261570         0.164842         1.368072
 H        -0.527493        -0.263548        -0.390870
 H         0.223985        -1.464668         0.642346
 H         1.178459        -1.713636        -1.030125
 H         2.473527        -0.826753        -1.987264
 H         3.065153        -2.962699         0.754481
 H         4.849764         0.029575         0.911692
 H         1.789555         2.359626         0.313843
 H         1.852989         1.640281        -1.436717
 H         2.560961        -0.526852         2.193249
