19
Iteration:   391charge 0 multiplicity 1
 C        -0.095130         0.016454         0.216928
 C         1.449169        -0.048169         0.005102
 C         2.007503        -1.062845        -0.996253
 C         3.237001        -1.327759        -0.039714
 O         3.888453        -2.557111         0.145576
 C         3.839501         0.009496         0.415697
 O         3.586353         1.153854        -0.373791
 C         2.203367         1.353620        -0.306393
 C         2.530326        -0.539313         1.122888
 H        -0.338787         0.684666         1.150453
 H        -0.495201         0.598323        -0.728280
 H        -0.673613        -0.799798         0.357558
 H         1.347986        -1.887285        -1.005601
 H         2.062608        -0.737795        -2.077100
 H         4.762799        -2.446181        -0.320599
 H         4.745129         0.113713         0.948424
 H         1.937622         2.100790         0.395418
 H         1.684527         1.729447        -1.329001
 H         2.448428        -0.536724         2.203562
