19
Iteration:  1361charge 0 multiplicity 1
 C         0.024951         0.225177         0.217090
 C         1.485256        -0.040345         0.030009
 C         1.822410        -1.298303        -0.831229
 C         3.149918        -1.370200        -0.007385
 O         4.062470        -2.398065        -0.136264
 C         3.721144        -0.037441         0.432196
 O         3.600576         1.206738        -0.123094
 C         2.197654         1.254488        -0.526905
 C         2.508606        -0.567011         1.143875
 H        -0.264571         0.917448         0.992984
 H        -0.345578         0.689534        -0.771285
 H        -0.483897        -0.658258         0.529586
 H         1.269670        -2.105111        -0.491905
 H         1.698095        -1.301808        -1.961175
 H         4.931581        -1.936674        -0.270269
 H         4.638263        -0.170144         1.090846
 H         1.740746         2.118859         0.015087
 H         2.197389         1.404734        -1.712127
 H         2.231407        -0.701765         2.197976
