19
Iteration:  1627
 C         0.033485        -0.169154         0.388090
 C         1.489523         0.067074        -0.034874
 C         1.991765        -1.020251        -1.047870
 C         3.189345        -1.342281        -0.057546
 O         3.802083        -2.555011         0.194241
 C         3.810077        -0.023153         0.431358
 O         3.633066         1.225149        -0.329032
 C         2.142825         1.414558        -0.410636
 C         2.525505        -0.467505         1.005826
 H        -0.279825         0.476209         1.190502
 H        -0.673197        -0.046916        -0.387549
 H        -0.129279        -1.282942         0.621210
 H         1.306012        -1.889334        -0.959803
 H         2.256464        -0.926832        -2.144198
 H         4.687362        -2.578387        -0.294626
 H         4.845144        -0.058296         0.976031
 H         1.933502         2.163207         0.328869
 H         1.888627         1.812391        -1.491872
 H         2.147629        -0.703766         1.988117
