19
Iteration:  4048
 C         0.095095         0.020287         0.352358
 C         1.537778         0.047439         0.063652
 C         1.992738        -1.043340        -0.927873
 C         3.200473        -1.395898        -0.055795
 O         3.846788        -2.557982         0.205586
 C         3.802624         0.024674         0.297889
 O         3.461067         1.145436        -0.473019
 C         2.045424         1.396495        -0.365075
 C         2.654381        -0.535391         1.084669
 H        -0.393402         0.555701         1.102542
 H        -0.287440         0.074412        -0.688918
 H        -0.302547        -1.053318         0.697686
 H         1.286684        -2.036584        -0.861943
 H         2.287798        -0.750141        -1.911694
 H         4.668215        -2.570321        -0.257216
 H         4.798629         0.070311         0.614983
 H         1.820891         2.128064         0.411710
 H         1.723300         1.776781        -1.401065
 H         2.661299        -0.572238         2.135083
