19
Iteration:  3774charge 0 multiplicity 1
 C        -0.019629         0.048955         0.411346
 C         1.461133         0.019388         0.017674
 C         1.956395        -1.113338        -0.914298
 C         3.151172        -1.337676        -0.019034
 O         4.107506        -2.418381         0.034325
 C         3.743366        -0.035358         0.454901
 O         3.605129         1.102741        -0.413127
 C         2.126693         1.337545        -0.524393
 C         2.498488        -0.502484         1.132407
 H        -0.204432         0.667947         1.251407
 H        -0.603441         0.439207        -0.464849
 H        -0.483240        -0.997678         0.640589
 H         1.256130        -1.960371        -1.086835
 H         2.246807        -0.885315        -1.960388
 H         3.695469        -3.272125         0.052907
 H         4.678132        -0.167788         0.920073
 H         1.831396         2.171013         0.185865
 H         1.820414         1.646603        -1.451158
 H         2.497219        -0.398388         2.225116
