19
Iteration:  1645
 C         0.033696        -0.238996         0.399811
 C         1.517428         0.034302        -0.044119
 C         2.103318        -1.028997        -1.151085
 C         3.115325        -1.297452        -0.045900
 O         3.734841        -2.517804         0.263926
 C         3.763752        -0.022344         0.345282
 O         3.582270         1.101983        -0.446347
 C         2.172935         1.465168        -0.274498
 C         2.540986        -0.416930         1.047178
 H        -0.184827         0.340496         1.292778
 H        -0.726241        -0.076123        -0.480729
 H        -0.025324        -1.266903         0.674768
 H         1.468101        -1.766894        -1.507967
 H         2.554582        -0.413281        -1.967487
 H         4.727690        -2.391522         0.073328
 H         4.719283        -0.036631         0.839161
 H         2.023099         2.066216         0.688064
 H         2.041288         1.943345        -1.138999
 H         2.484910        -0.491504         2.082169
