19
Iteration:  1338charge 0 multiplicity 1
 C        -0.069825         0.035051         0.259752
 C         1.491406        -0.001841         0.073548
 C         1.903234        -1.169754        -0.885703
 C         3.196693        -1.314908        -0.118303
 O         3.919628        -2.494913        -0.041952
 C         3.771748        -0.047515         0.446209
 O         3.626466         1.228521        -0.153456
 C         2.193509         1.293552        -0.522788
 C         2.541791        -0.475426         1.152157
 H        -0.285237         0.736475         1.097973
 H        -0.473100         0.508363        -0.656221
 H        -0.462960        -0.871227         0.572213
 H         1.257085        -2.006100        -0.825881
 H         2.020962        -0.968372        -1.980841
 H         4.854141        -2.174295        -0.159334
 H         4.748273        -0.251621         0.950305
 H         1.755314         2.216643        -0.191432
 H         2.211587         1.170515        -1.705749
 H         2.430005        -0.732760         2.132512
