19
Iteration:   499
 C         0.052026         0.014609         0.294857
 C         1.582816        -0.003423        -0.029425
 C         2.086616        -1.138299        -0.980480
 C         3.214485        -1.381132         0.037576
 O         3.788199        -2.768070         0.000847
 C         3.818344         0.009972         0.426027
 O         3.526084         1.361516        -0.279640
 C         2.070926         1.381828        -0.412287
 C         2.552435        -0.435288         1.061225
 H        -0.121471         0.899605         0.948563
 H        -0.582339         0.257789        -0.664598
 H        -0.454155        -0.805130         0.779489
 H         1.468915        -2.009258        -0.958537
 H         2.297383        -0.736584        -2.022180
 H         4.454012        -2.813853         0.656387
 H         4.791862         0.065164         0.833313
 H         1.715973         2.245144         0.274058
 H         1.736710         1.573115        -1.369072
 H         2.268989        -0.361971         2.167656
