19
Iteration:  2454
 C        -0.001835        -0.215514         0.293233
 C         1.486883         0.015346         0.017343
 C         2.036853        -1.036285        -1.036674
 C         3.203094        -1.303442        -0.012903
 O         3.781800        -2.602117         0.164970
 C         3.835644         0.055540         0.385520
 O         3.533582         1.122077        -0.570969
 C         2.203383         1.455180        -0.216809
 C         2.557317        -0.381810         1.075998
 H        -0.286631         0.266111         1.191143
 H        -0.612841         0.183463        -0.517105
 H        -0.186951        -1.329175         0.451245
 H         1.459499        -1.866715        -1.235179
 H         2.301515        -0.549819        -1.963325
 H         4.592678        -2.444313         0.727604
 H         4.695889         0.164639         0.970623
 H         2.046907         1.965416         0.718377
 H         1.855265         1.961621        -1.157657
 H         2.364079        -0.547910         2.189029
