19
Iteration:  1969
 C         0.087628         0.244634         0.235145
 C         1.503207        -0.089589         0.018593
 C         1.904932        -1.287870        -0.849610
 C         3.183065        -1.338713         0.037158
 O         4.113355        -2.418249        -0.153289
 C         3.667958        -0.016948         0.570304
 O         3.514307         1.114716        -0.272220
 C         2.151379         1.289581        -0.536995
 C         2.462252        -0.512148         1.141177
 H        -0.095979         0.945793         1.184005
 H        -0.304026         0.692250        -0.671737
 H        -0.595621        -0.587450         0.477660
 H         1.233201        -2.124995        -0.404532
 H         1.805922        -1.235652        -1.868737
 H         4.926716        -2.065051        -0.450491
 H         4.610596         0.137950         1.229264
 H         1.897075         2.101301         0.167416
 H         1.846995         1.387556        -1.509218
 H         2.248340        -0.674515         2.219285
