19
Iteration:  3596charge 0 multiplicity 1
 C        -0.014067        -0.045332         0.307935
 C         1.519500         0.002338         0.063805
 C         1.937023        -1.218587        -0.872696
 C         3.218061        -1.348853        -0.032584
 O         3.973740        -2.477989         0.070244
 C         3.850500        -0.002379         0.402931
 O         3.581489         1.202691        -0.461845
 C         2.112733         1.394798        -0.404182
 C         2.558028        -0.405697         1.093267
 H        -0.252808         0.574347         1.124048
 H        -0.590672         0.395684        -0.638861
 H        -0.308580        -1.122658         0.393311
 H         1.144319        -2.053384        -0.693404
 H         2.078493        -0.988703        -1.963461
 H         3.317404        -3.168779         0.083192
 H         4.781629        -0.045756         0.913551
 H         1.871149         2.135715         0.451664
 H         1.814846         1.804501        -1.295187
 H         2.229491        -0.442728         2.142572
