19
Iteration:  4843
 C         0.007770         0.144331         0.374658
 C         1.474225        -0.068890         0.060336
 C         1.951743        -1.150269        -0.989077
 C         3.260458        -1.319603        -0.088436
 O         4.037486        -2.497247         0.090852
 C         3.797814        -0.057074         0.411736
 O         3.510643         1.275379        -0.269213
 C         2.172044         1.253156        -0.497569
 C         2.490973        -0.504273         1.051482
 H        -0.209871         0.886052         1.164488
 H        -0.609164         0.401900        -0.591600
 H        -0.433189        -0.859595         0.977871
 H         1.200366        -1.979986        -0.912635
 H         2.290500        -0.662476        -1.867738
 H         3.499369        -3.223815        -0.273270
 H         4.757785        -0.022128         0.934820
 H         1.705638         2.196302        -0.043200
 H         1.870426         1.241460        -1.513570
 H         2.444870        -0.797275         2.061826
