19
Iteration:  3538charge 0 multiplicity 1
 C        -0.025722         0.239839         0.427630
 C         1.494219        -0.045186         0.060403
 C         1.965127        -1.174270        -0.932278
 C         3.179318        -1.360635        -0.068986
 O         4.181233        -2.378275         0.029073
 C         3.682203        -0.001223         0.429021
 O         3.509067         1.140949        -0.266635
 C         2.126312         1.178460        -0.646912
 C         2.504562        -0.572777         1.106779
 H        -0.076732         1.322009         1.058341
 H        -0.787918         0.218565        -0.371962
 H        -0.263897        -0.324161         1.293557
 H         1.135253        -2.007983        -1.044822
 H         2.176932        -0.782445        -1.960401
 H         3.699155        -3.263434        -0.000005
 H         4.658536        -0.093322         1.022079
 H         1.897918         2.197476        -0.205987
 H         2.202248         1.208283        -1.735711
 H         2.347406        -0.653929         2.195704
