19
Iteration:  4633
 C         0.030172         0.048531         0.326962
 C         1.530499         0.021170        -0.005887
 C         1.961382        -1.172664        -0.896867
 C         3.223663        -1.297790        -0.034975
 O         3.979021        -2.477102        -0.062762
 C         3.773756        -0.010691         0.405877
 O         3.519790         1.115796        -0.416207
 C         2.166033         1.351610        -0.383036
 C         2.469836        -0.516268         1.165137
 H        -0.212576         0.856485         1.058251
 H        -0.449541         0.161700        -0.617027
 H        -0.292583        -0.890631         0.638502
 H         1.342530        -1.995667        -0.608485
 H         1.965702        -1.064821        -2.038134
 H         4.380440        -2.464433         0.810222
 H         4.644570         0.050244         1.047552
 H         1.811099         2.058692         0.426887
 H         1.729786         1.763741        -1.263015
 H         2.376429        -0.589146         2.226241
