19
Iteration:  4532
 C         0.030198        -0.058837         0.423898
 C         1.512257         0.054056         0.047587
 C         2.011864        -1.064735        -0.974477
 C         3.133457        -1.413471         0.011760
 O         4.017414        -2.511813         0.124707
 C         3.776089        -0.062459         0.363654
 O         3.505786         1.163417        -0.394028
 C         2.119567         1.422275        -0.495065
 C         2.558174        -0.450056         1.088710
 H        -0.223328         0.699252         1.225783
 H        -0.555662         0.182247        -0.455711
 H        -0.107113        -0.993644         0.851902
 H         1.211827        -1.745663        -1.004783
 H         2.189274        -0.721806        -2.053979
 H         3.865719        -3.010960        -0.694899
 H         4.791105        -0.184675         0.790075
 H         1.831357         2.296969         0.257969
 H         1.741606         1.599268        -1.457170
 H         2.327604        -0.473997         2.218410
