19
Iteration:  1548charge 0 multiplicity 1
 C         0.079931         0.215980         0.268287
 C         1.510030         0.018468        -0.023177
 C         1.846178        -1.243400        -0.838413
 C         3.192929        -1.356397        -0.059080
 O         4.145336        -2.345140        -0.023316
 C         3.691272        -0.073330         0.549704
 O         3.565612         1.139868        -0.239316
 C         2.171046         1.246253        -0.480375
 C         2.415577        -0.515894         1.118778
 H        -0.094123         0.860152         1.037233
 H        -0.485304         0.570367        -0.633629
 H        -0.312935        -0.737684         0.618312
 H         1.204700        -1.992867        -0.528044
 H         1.807085        -1.196694        -2.005462
 H         4.261172        -2.815137        -0.924282
 H         4.657436        -0.157854         0.888998
 H         1.863470         2.202051        -0.015963
 H         1.931629         1.290257        -1.681631
 H         2.055057        -1.037707         1.985840
