19
Iteration:   489charge 0 multiplicity 1
 C         0.136683         0.018209         0.266769
 C         1.560680         0.036033         0.015534
 C         1.981757        -1.142826        -0.961099
 C         3.167108        -1.416548        -0.017900
 O         3.837986        -2.709503         0.011394
 C         3.764495         0.048958         0.383434
 O         3.530222         1.328694        -0.225608
 C         2.125179         1.377140        -0.443505
 C         2.579010        -0.445256         1.076055
 H        -0.168484         0.924098         0.926731
 H        -0.558086         0.078041        -0.698230
 H        -0.113158        -0.885329         0.714605
 H         1.161465        -1.798299        -0.887139
 H         2.199290        -1.031464        -2.087804
 H         4.448185        -2.769546         0.750334
 H         4.625777         0.038020         1.010885
 H         1.539839         2.169086         0.164732
 H         2.011344         1.551302        -1.509302
 H         2.321296        -0.697582         2.167072
