19
Iteration:  3934charge 0 multiplicity 1
 C         0.043711         0.215499         0.358038
 C         1.494778        -0.070146         0.018967
 C         1.938343        -1.237081        -0.839905
 C         3.272862        -1.313191        -0.072948
 O         4.030124        -2.505314        -0.042737
 C         3.754007         0.054301         0.438061
 O         3.468096         1.226573        -0.350245
 C         2.099993         1.264221        -0.461715
 C         2.579227        -0.577698         1.083959
 H        -0.010725         0.931955         1.201692
 H        -0.369580         0.486933        -0.611201
 H        -0.489068        -0.575185         0.717128
 H         1.151796        -2.071802        -0.763438
 H         2.084370        -0.931989        -1.916594
 H         4.085623        -2.916031         0.852550
 H         4.694646         0.072491         0.899208
 H         1.607539         2.105432         0.020764
 H         1.861276         1.340469        -1.604613
 H         2.360699        -0.818152         2.149202
