19
Iteration:  2849charge 0 multiplicity 1
 C         0.007642        -0.155346         0.324774
 C         1.504286         0.041536         0.091046
 C         2.062181        -1.030424        -1.096043
 C         3.160152        -1.323597        -0.002379
 O         3.951128        -2.498422         0.308603
 C         3.765490        -0.008025         0.283589
 O         3.475645         1.088644        -0.599691
 C         2.144142         1.448877        -0.264540
 C         2.602202        -0.470186         1.101138
 H        -0.282017         0.529214         1.160632
 H        -0.703535         0.211771        -0.542142
 H        -0.233086        -1.178503         0.734970
 H         1.368658        -1.866280        -1.275700
 H         2.297376        -0.421829        -2.063280
 H         3.523980        -3.060334        -0.329721
 H         4.732904         0.114514         0.853653
 H         2.364657         2.017977         0.681493
 H         1.834210         2.088275        -1.080736
 H         2.454744        -0.719842         2.223325
