19
Iteration:  2828
 C         0.092644        -0.050474         0.439384
 C         1.584589        -0.005749        -0.015814
 C         2.070751        -1.037184        -1.004307
 C         3.146500        -1.391797        -0.058375
 O         3.929828        -2.494655         0.256316
 C         3.800964        -0.011645         0.352215
 O         3.500752         1.147645        -0.476299
 C         2.046516         1.408609        -0.371786
 C         2.500853        -0.470096         0.999614
 H        -0.173447         0.584181         1.257348
 H        -0.772368         0.033398        -0.397500
 H         0.036938        -1.050186         0.935385
 H         1.330120        -1.794373        -1.204319
 H         2.473184        -0.515129        -2.001814
 H         3.791769        -3.306793        -0.260153
 H         4.839115         0.060372         0.782055
 H         1.775136         2.119023         0.523844
 H         1.790090         1.810841        -1.369586
 H         2.245982        -0.493783         2.120286
