19
Iteration:  2313charge 0 multiplicity 1
 C         0.070374         0.060795         0.203362
 C         1.525888        -0.022118         0.038786
 C         2.010187        -1.182911        -0.867059
 C         3.250973        -1.319226         0.033861
 O         3.890139        -2.633154        -0.069917
 C         3.786238         0.091521         0.487013
 O         3.520747         1.286504        -0.282589
 C         2.078867         1.279146        -0.451900
 C         2.489006        -0.464649         1.139008
 H        -0.208827         0.653754         1.006053
 H        -0.401618         0.592813        -0.777854
 H        -0.388592        -0.977941         0.392773
 H         1.444664        -2.056241        -0.620487
 H         2.117785        -1.097090        -2.078099
 H         4.820789        -2.621430        -0.254191
 H         4.653980         0.192321         1.140677
 H         1.706136         2.042834         0.208479
 H         2.024675         1.457716        -1.530700
 H         2.252937        -0.755564         2.117131
