19
Iteration:  4895charge 0 multiplicity 1
 C        -0.000503        -0.007066         0.335360
 C         1.484158        -0.015308         0.011019
 C         2.021839        -1.132679        -0.914323
 C         3.179241        -1.394389         0.003144
 O         4.063517        -2.497717        -0.047402
 C         3.696618        -0.032991         0.463825
 O         3.605412         1.119525        -0.428949
 C         2.112732         1.416039        -0.392739
 C         2.464023        -0.351710         1.128536
 H        -0.212856         0.594017         1.247320
 H        -0.484651         0.537979        -0.502759
 H        -0.233179        -1.066515         0.327431
 H         1.357271        -2.036939        -0.760873
 H         2.290657        -0.899798        -2.027739
 H         3.563925        -3.345290         0.256937
 H         4.683093        -0.080157         0.977095
 H         2.143038         2.038418         0.504308
 H         1.611206         1.840373        -1.349454
 H         2.227223        -0.118993         2.280678
