19
Iteration:  4257
 C         0.025238         0.033557         0.401991
 C         1.515274        -0.008039        -0.019427
 C         1.940706        -1.243301        -0.981936
 C         3.185157        -1.355395        -0.042595
 O         3.910876        -2.527459         0.194472
 C         3.805950         0.020446         0.230325
 O         3.543203         1.288229        -0.278399
 C         2.120035         1.344002        -0.380820
 C         2.650643        -0.470595         1.041060
 H        -0.269441         0.572743         1.245904
 H        -0.390448         0.366745        -0.564409
 H        -0.443882        -0.978386         0.575418
 H         1.142614        -2.054425        -0.723012
 H         2.017010        -1.081820        -2.014014
 H         4.309783        -2.816401        -0.663004
 H         4.870023        -0.087710         0.630556
 H         1.587883         2.047974         0.260730
 H         1.894902         1.683876        -1.481280
 H         2.242848        -0.474177         2.059231
