19
Iteration:  4912
 C        -0.019626        -0.008565         0.250856
 C         1.469194         0.063113         0.044323
 C         1.985020        -1.114092        -0.945624
 C         3.226887        -1.334552        -0.006995
 O         4.022914        -2.476029         0.055607
 C         3.794437        -0.038931         0.358150
 O         3.522165         1.104354        -0.449491
 C         2.138587         1.384222        -0.291629
 C         2.576270        -0.472436         1.113814
 H        -0.396996         0.579321         1.121224
 H        -0.594874         0.351600        -0.605170
 H        -0.488195        -0.998482         0.563163
 H         1.232962        -1.892458        -0.946285
 H         2.224186        -0.727405        -1.892332
 H         3.505608        -3.252755         0.478346
 H         4.746087         0.028510         0.919727
 H         1.783801         2.125513         0.451920
 H         1.974307         1.777643        -1.293058
 H         2.390686        -0.594454         2.180102
