19
Iteration:  1962
 C         0.044186         0.249388         0.242774
 C         1.509028        -0.046679         0.056467
 C         1.933220        -1.262072        -0.825120
 C         3.206731        -1.364850        -0.020319
 O         4.100332        -2.419187        -0.166566
 C         3.687384         0.019867         0.567989
 O         3.514247         1.115819        -0.266534
 C         2.131044         1.212229        -0.530516
 C         2.452732        -0.536700         1.222005
 H         0.112925         1.029493         1.014273
 H        -0.225028         0.902008        -0.705016
 H        -0.548441        -0.584379         0.485237
 H         1.246532        -2.046958        -0.515869
 H         1.969350        -1.257547        -2.031720
 H         4.929147        -1.937872        -0.414986
 H         4.568818         0.000453         1.097565
 H         1.745088         2.153318        -0.088002
 H         1.842937         1.248464        -1.742573
 H         2.093037        -0.720717         2.232581
