19
Iteration:   232charge 0 multiplicity 1
 C         0.020745         0.257626         0.227172
 C         1.490862        -0.057034         0.050802
 C         2.049952        -1.153251        -0.911790
 C         3.241427        -1.284207        -0.074854
 O         3.915978        -2.458693         0.062637
 C         3.782134        -0.009589         0.530563
 O         3.518832         1.079497        -0.343341
 C         2.092725         1.270542        -0.432485
 C         2.527766        -0.607934         1.100479
 H        -0.068340         0.844983         1.101836
 H        -0.438675         0.745540        -0.586262
 H        -0.606331        -0.744583         0.454531
 H         1.341693        -2.051029        -0.948577
 H         2.281144        -0.781951        -1.917355
 H         4.580602        -2.530273        -0.632870
 H         4.673361         0.048949         1.080633
 H         1.727418         2.084922         0.271951
 H         1.832964         1.610755        -1.353503
 H         2.388897        -0.964882         2.104032
