19
Iteration:   911
 C         0.134361        -0.009414         0.354475
 C         1.561051        -0.031981         0.005633
 C         2.181517        -1.038503        -1.060255
 C         3.280200        -1.312492         0.010890
 O         3.574388        -2.637180         0.067076
 C         3.808508         0.068912         0.494195
 O         3.525341         1.222988        -0.377658
 C         2.071094         1.322726        -0.368282
 C         2.539467        -0.490132         1.075887
 H        -0.077676         0.959606         0.911403
 H        -0.634355        -0.009228        -0.529158
 H        -0.191869        -0.976866         0.807142
 H         1.769078        -1.969122        -1.347644
 H         2.570971        -0.433242        -1.957585
 H         4.546947        -2.873568        -0.138521
 H         4.711987         0.223123         1.098444
 H         1.534821         2.084511         0.364433
 H         1.922869         1.659801        -1.407604
 H         2.462869        -0.954859         1.977812
