19
Iteration:  1695
 C        -0.070257        -0.023870         0.260248
 C         1.527039         0.001260         0.011689
 C         2.115230        -1.089601        -0.944730
 C         3.230131        -1.302355        -0.040103
 O         3.797535        -2.571724         0.183149
 C         3.838749         0.031395         0.368635
 O         3.544129         1.227388        -0.363052
 C         2.100956         1.319242        -0.347621
 C         2.602677        -0.491038         1.054006
 H        -0.322069         0.647676         1.143674
 H        -0.599703         0.271897        -0.597233
 H        -0.404004        -1.060471         0.405537
 H         1.360769        -1.997994        -0.934866
 H         2.327753        -0.756164        -1.954045
 H         4.195244        -2.859901        -0.624381
 H         4.760289         0.072386         0.853437
 H         1.893803         1.964987         0.461278
 H         1.692620         1.670872        -1.425819
 H         2.631253        -0.588336         2.169214
