19
Iteration:   878charge 0 multiplicity 1
 C         0.038968        -0.175793         0.340931
 C         1.504859         0.048997        -0.056908
 C         2.028286        -1.000778        -1.066418
 C         3.149663        -1.332751        -0.053444
 O         3.793925        -2.592251         0.245923
 C         3.798535        -0.039219         0.399716
 O         3.629596         1.199391        -0.346258
 C         2.212720         1.478321        -0.331763
 C         2.461769        -0.443227         1.002113
 H        -0.311546         0.321174         1.315708
 H        -0.614190         0.043481        -0.570646
 H         0.148759        -1.227362         0.698031
 H         1.358782        -1.821985        -1.281220
 H         2.376334        -0.529191        -2.051553
 H         4.127150        -2.973439        -0.592482
 H         4.676717        -0.199474         1.064551
 H         1.929041         2.235750         0.531197
 H         2.012691         1.909892        -1.340117
 H         2.316994        -0.702269         1.984359
