19
Iteration:  2200charge 0 multiplicity 1
 C         0.057669        -0.083142         0.270981
 C         1.517750         0.037278         0.117291
 C         2.021794        -1.097346        -0.885769
 C         3.212829        -1.332493        -0.013425
 O         3.822992        -2.603211        -0.057338
 C         3.760035         0.098604         0.504753
 O         3.565673         1.263974        -0.281787
 C         2.142935         1.343602        -0.559763
 C         2.537926        -0.502396         1.106232
 H        -0.424820         0.566951         1.100501
 H        -0.397931         0.262124        -0.615455
 H        -0.231791        -1.062233         0.499073
 H         1.298251        -2.034826        -0.733890
 H         2.138760        -0.906903        -1.944517
 H         4.770718        -2.516271        -0.001536
 H         4.720558         0.052134         1.036817
 H         1.745321         2.153193        -0.039680
 H         1.962683         1.305062        -1.593368
 H         2.323323        -0.762504         2.193092
