19
Iteration:   509
 C        -0.018340         0.063329         0.321923
 C         1.494513        -0.052072        -0.034973
 C         2.200579        -1.120219        -0.964245
 C         3.288422        -1.379927         0.002700
 O         3.709773        -2.689775         0.009794
 C         3.836770         0.040734         0.428470
 O         3.527122         1.273754        -0.339245
 C         2.063415         1.391387        -0.406093
 C         2.541535        -0.471965         1.102941
 H        -0.162776         0.813762         1.048832
 H        -0.486516         0.288300        -0.682197
 H        -0.334014        -0.922576         0.769143
 H         1.632004        -2.026620        -1.171733
 H         2.637887        -0.793395        -1.946421
 H         4.448439        -2.800518         0.573800
 H         4.784419         0.066580         0.895753
 H         1.711073         2.132155         0.408145
 H         1.786492         1.764971        -1.302258
 H         2.438779        -0.332451         2.221801
