19
Iteration:   660
 C         0.099482        -0.022088         0.310362
 C         1.551318         0.109631        -0.050325
 C         1.965360        -1.168284        -0.962336
 C         3.119993        -1.308085        -0.049666
 O         3.881834        -2.490839         0.110702
 C         3.713689        -0.032240         0.474610
 O         3.624195         1.120745        -0.322922
 C         2.224421         1.441755        -0.415276
 C         2.411799        -0.512935         1.071590
 H        -0.207459         0.588949         1.143416
 H        -0.538724         0.180475        -0.553899
 H         0.001221        -1.191813         0.465893
 H         1.252191        -2.034189        -0.785310
 H         2.106484        -1.069515        -2.030924
 H         4.663905        -2.327071        -0.406809
 H         4.628190        -0.317278         0.989834
 H         1.850282         2.119562         0.342797
 H         2.075512         1.997312        -1.476086
 H         2.175203        -0.919999         2.120268
