19
Iteration:  3348charge 0 multiplicity 1
 C         0.055515         0.232365         0.317418
 C         1.500756        -0.060334         0.028883
 C         1.870562        -1.288450        -0.802288
 C         3.232524        -1.365287         0.004162
 O         4.155997        -2.378029        -0.178645
 C         3.750972         0.007997         0.468533
 O         3.529785         1.153477        -0.262292
 C         2.135698         1.232499        -0.604885
 C         2.445891        -0.445877         1.226043
 H        -0.215538         1.074277         1.055482
 H        -0.279657         0.465553        -0.660134
 H        -0.452925        -0.730400         0.703543
 H         1.229888        -2.156702        -0.339117
 H         1.907548        -1.366030        -1.964286
 H         3.668218        -3.248082        -0.227489
 H         4.551146         0.000305         1.223524
 H         1.757498         2.114909        -0.081314
 H         1.876070         1.299485        -1.679343
 H         2.233088        -0.415395         2.323661
