19
Iteration:   144charge 0 multiplicity 1
 C        -0.038468        -0.105290         0.265035
 C         1.528800         0.026254         0.022431
 C         2.081760        -0.912623        -1.070854
 C         3.223843        -1.359710        -0.055763
 O         3.758009        -2.583179         0.316217
 C         3.882519         0.042128         0.312958
 O         3.546822         1.146846        -0.412726
 C         2.130368         1.402796        -0.294062
 C         2.541342        -0.534899         1.050357
 H        -0.296101         0.566368         1.005444
 H        -0.670156         0.105374        -0.552314
 H        -0.249366        -1.214735         0.486040
 H         1.399744        -1.744990        -1.259874
 H         2.333349        -0.570654        -2.068807
 H         4.334123        -2.941518        -0.322481
 H         4.847851         0.011137         0.943228
 H         2.056755         2.090653         0.531934
 H         1.778099         1.878619        -1.156899
 H         2.519131        -0.708941         2.139976
