19
Iteration:  2793
 C         0.021067         0.038210         0.423786
 C         1.507724        -0.030120         0.030756
 C         2.002025        -1.226231        -0.887972
 C         3.241405        -1.339788        -0.044454
 O         3.923451        -2.497068        -0.001468
 C         3.794810         0.106287         0.485806
 O         3.572093         1.322769        -0.286538
 C         2.121984         1.223267        -0.610462
 C         2.570275        -0.494460         1.073057
 H        -0.059525         0.817926         1.264264
 H        -0.737475         0.226448        -0.312498
 H        -0.230335        -0.987579         0.858929
 H         1.334566        -2.162878        -0.746086
 H         1.964983        -0.941750        -1.932750
 H         3.372444        -3.192108        -0.389995
 H         4.703496         0.082447         1.030147
 H         1.662944         2.147775        -0.174258
 H         2.022325         1.332907        -1.669690
 H         2.075593        -0.656980         1.993083
