19
Iteration:  2281
 C        -0.038178        -0.070511         0.234564
 C         1.485421         0.086608         0.006877
 C         2.094949        -1.016406        -1.034901
 C         3.192271        -1.328065         0.021010
 O         3.929589        -2.486946         0.203907
 C         3.812495        -0.042173         0.342854
 O         3.523732         1.095362        -0.426150
 C         2.136034         1.373433        -0.237132
 C         2.491173        -0.483315         1.124934
 H        -0.353265         0.446801         1.054310
 H        -0.639578         0.298541        -0.737524
 H        -0.248035        -1.202044         0.281919
 H         1.489880        -1.870677        -1.134655
 H         2.452907        -0.754086        -2.143964
 H         4.344820        -2.785018        -0.642332
 H         4.724905        -0.127262         0.892448
 H         1.889354         2.147072         0.482867
 H         1.806695         1.898461        -1.139098
 H         2.325932        -0.825069         2.109997
