19
Iteration:   422
 C         0.103994         0.164342         0.309196
 C         1.559371        -0.020070        -0.037460
 C         2.150635        -1.130365        -0.921160
 C         3.227687        -1.377615         0.086166
 O         3.941581        -2.559763        -0.098500
 C         3.696028        -0.052123         0.478088
 O         3.457682         1.110526        -0.336048
 C         2.092259         1.381986        -0.454424
 C         2.371741        -0.522503         1.163185
 H         0.092296         0.915424         1.068468
 H        -0.545431         0.633492        -0.504773
 H        -0.504878        -0.648059         0.602259
 H         1.405317        -1.922549        -0.815077
 H         2.504354        -1.037472        -1.965884
 H         4.832715        -2.345958         0.219978
 H         4.600152         0.215009         0.980317
 H         1.886741         2.365100         0.116109
 H         1.855426         1.498178        -1.485015
 H         2.196726        -0.626631         2.206816
