19
Iteration:  1915charge 0 multiplicity 1
 C         0.061492         0.074498         0.348911
 C         1.518953        -0.003992        -0.058650
 C         1.970207        -1.224223        -0.892943
 C         3.232742        -1.320532        -0.060267
 O         3.927618        -2.536314        -0.043099
 C         3.718880         0.003001         0.496775
 O         3.575789         1.286970        -0.210539
 C         2.145230         1.306445        -0.538351
 C         2.472165        -0.488680         1.083948
 H        -0.182202         0.939330         1.154145
 H        -0.620326         0.240263        -0.494599
 H        -0.048791        -0.927123         0.778280
 H         1.257616        -2.132661        -0.611379
 H         1.984479        -1.081047        -1.978840
 H         4.737130        -2.532474         0.424857
 H         4.807054        -0.204071         0.878453
 H         1.653351         2.217829        -0.116671
 H         1.868129         1.294961        -1.686124
 H         2.191509        -0.783982         2.112955
