19
Iteration:  3880charge 0 multiplicity 1
 C         0.041777        -0.030522         0.405050
 C         1.537320         0.031802         0.069279
 C         1.965282        -1.058042        -0.947318
 C         3.213538        -1.303880        -0.070471
 O         3.944784        -2.461254         0.030854
 C         3.763303        -0.045234         0.436794
 O         3.596906         1.105621        -0.483768
 C         2.089902         1.372870        -0.489025
 C         2.534390        -0.508936         1.163946
 H        -0.415840         0.575917         1.245161
 H        -0.581417         0.216875        -0.524669
 H        -0.147824        -1.101157         0.638912
 H         1.165836        -1.852207        -0.854815
 H         2.170475        -0.698024        -1.886139
 H         4.070009        -2.738893         0.918228
 H         4.661601        -0.091161         0.957853
 H         1.797777         2.068353         0.189441
 H         1.753823         1.590540        -1.545195
 H         2.257875        -0.581201         2.235365
