19
Iteration:  2257
 C         0.050033        -0.126103         0.305735
 C         1.508706         0.030939         0.023427
 C         2.033138        -0.929850        -1.180551
 C         3.207117        -1.384516        -0.124626
 O         3.897028        -2.467890         0.365937
 C         3.741422         0.028321         0.445631
 O         3.521030         1.123279        -0.484547
 C         2.147792         1.428438        -0.230098
 C         2.489365        -0.619921         0.995780
 H        -0.019547         0.594821         1.105925
 H        -0.719064         0.095319        -0.554995
 H        -0.136139        -1.122382         0.702752
 H         1.405107        -1.731341        -1.646472
 H         2.551211        -0.342497        -2.067502
 H         4.277441        -3.216751        -0.213132
 H         4.755754        -0.127597         1.086299
 H         2.005412         2.103004         0.577663
 H         1.786335         2.055539        -1.025915
 H         2.406228        -0.727580         2.070535
