19
Iteration:  4236
 C         0.112196        -0.030420         0.408982
 C         1.509835         0.025432        -0.044765
 C         2.034358        -1.177144        -1.004785
 C         3.261905        -1.327022        -0.038592
 O         3.829066        -2.562773         0.202330
 C         3.774488         0.028521         0.381244
 O         3.516114         1.235911        -0.442409
 C         2.086971         1.391646        -0.374921
 C         2.547613        -0.456545         1.046362
 H         0.212971         0.533583         1.306109
 H        -0.632896         0.221561        -0.277000
 H        -0.120120        -0.997308         0.828475
 H         1.430573        -2.106438        -0.935656
 H         2.197529        -0.920734        -2.050874
 H         4.005922        -2.944860        -0.714406
 H         4.740261        -0.006511         0.996126
 H         1.712611         2.085699         0.433359
 H         1.680614         1.881929        -1.371345
 H         2.457124        -0.771774         2.101361
