19
Iteration:   835
 C         0.040752         0.097998         0.207459
 C         1.508302         0.058448         0.028402
 C         2.014343        -1.086660        -0.967196
 C         3.278585        -1.364617        -0.046932
 O         3.897003        -2.552900         0.148211
 C         3.775116        -0.039091         0.466248
 O         3.547626         1.123675        -0.390997
 C         2.061966         1.380312        -0.323176
 C         2.509767        -0.577243         1.077037
 H        -0.264167         0.689204         1.089919
 H        -0.394143         0.773414        -0.620810
 H        -0.430781        -0.908034         0.266739
 H         1.464715        -2.000120        -1.018399
 H         2.241694        -0.685184        -2.016483
 H         4.516317        -2.660178        -0.562385
 H         4.693682         0.121655         1.085158
 H         1.876160         2.067430         0.534141
 H         1.683109         1.816079        -1.297159
 H         2.370226        -0.789191         2.084302
