19
Iteration:  4605charge 0 multiplicity 1
 C        -0.038433        -0.046047         0.365257
 C         1.562538         0.016168         0.062538
 C         2.034746        -1.057402        -1.003104
 C         3.129565        -1.421372         0.002301
 O         3.950235        -2.558677         0.069380
 C         3.848973         0.007291         0.298138
 O         3.516744         1.225042        -0.435878
 C         2.098419         1.377522        -0.323672
 C         2.590185        -0.440161         1.129889
 H        -0.317526         0.584915         1.183102
 H        -0.377095         0.197174        -0.710372
 H        -0.500675        -1.166151         0.511565
 H         1.240024        -1.913227        -1.261243
 H         2.378129        -0.709312        -1.959369
 H         3.686560        -3.047434         0.810723
 H         4.853643        -0.067265         0.687403
 H         1.846793         2.168532         0.385339
 H         1.676535         1.607666        -1.455447
 H         2.472818        -0.352188         2.250518
