19
Iteration:  3911
 C        -0.011725         0.261114         0.393809
 C         1.520052        -0.029580        -0.021531
 C         2.011439        -1.321512        -0.899458
 C         3.249016        -1.380024        -0.005243
 O         4.045623        -2.490727        -0.069540
 C         3.764538        -0.022500         0.399730
 O         3.518160         1.210914        -0.347010
 C         2.036666         1.293155        -0.431224
 C         2.522707        -0.481670         1.070783
 H        -0.140692         0.899659         1.343274
 H        -0.534690         0.516882        -0.503311
 H        -0.440299        -0.578413         0.751072
 H         1.321228        -2.191425        -0.722304
 H         2.296880        -1.193587        -2.041509
 H         4.223210        -2.883618         0.835905
 H         4.670059        -0.012439         0.926921
 H         1.613516         2.024601         0.279396
 H         1.729297         1.686059        -1.471138
 H         2.272524        -0.424951         2.130119
