19
Iteration:  4602
 C        -0.024605        -0.062728         0.364022
 C         1.557495         0.016880         0.085831
 C         2.024073        -1.025355        -1.020947
 C         3.146080        -1.401278        -0.024725
 O         3.942617        -2.572451         0.090908
 C         3.848889        -0.004430         0.297647
 O         3.506163         1.233783        -0.440107
 C         2.091740         1.348242        -0.340104
 C         2.595951        -0.440833         1.135443
 H        -0.336055         0.580350         1.186802
 H        -0.387548         0.253703        -0.643363
 H        -0.432656        -1.116188         0.539890
 H         1.313457        -1.894485        -1.239827
 H         2.451344        -0.733864        -1.999319
 H         3.568005        -3.167793         0.817942
 H         4.822385         0.044513         0.741883
 H         1.867682         2.159668         0.456763
 H         1.731029         1.649029        -1.483129
 H         2.488055        -0.326768         2.197265
