19
Iteration:  1459charge 0 multiplicity 1
 C         0.023304        -0.282107         0.289829
 C         1.503981         0.026390        -0.076443
 C         2.128450        -0.997126        -1.025510
 C         3.173073        -1.301023        -0.019770
 O         3.619209        -2.580175         0.294282
 C         3.866659         0.028360         0.281079
 O         3.587097         1.214513        -0.429483
 C         2.169753         1.474780        -0.231210
 C         2.589931        -0.451540         1.039626
 H        -0.316484         0.223912         1.184083
 H        -0.788000        -0.156921        -0.531437
 H         0.030743        -1.337332         0.523368
 H         1.485275        -1.817755        -1.232406
 H         2.460205        -0.580886        -2.036167
 H         4.233237        -2.884646        -0.471206
 H         4.907754         0.161466         0.747624
 H         2.062958         1.842704         0.718834
 H         1.804168         2.191085        -1.105010
 H         2.486450        -0.566158         2.235074
