19
Iteration:  4372charge 0 multiplicity 1
 C         0.024050        -0.046493         0.365271
 C         1.508658        -0.006398         0.053774
 C         2.002432        -1.138264        -0.899593
 C         3.202251        -1.312973        -0.029223
 O         3.751972        -2.571963         0.110712
 C         3.880774         0.058133         0.232247
 O         3.555987         1.277669        -0.459491
 C         2.078393         1.306058        -0.306518
 C         2.638974        -0.486756         1.044816
 H        -0.419393         0.563863         1.191993
 H        -0.442822         0.082179        -0.571286
 H        -0.311625        -1.008437         0.734155
 H         1.359875        -1.974090        -0.958134
 H         2.398026        -0.789154        -1.900977
 H         4.482235        -2.590490         0.797760
 H         4.859215         0.046726         0.721152
 H         1.756409         2.258053         0.262489
 H         1.885627         1.515205        -1.437542
 H         2.610587        -0.678543         2.162330
