19
Iteration:  2093charge 0 multiplicity 1
 C         0.084801        -0.134516         0.333476
 C         1.553458         0.053429         0.042438
 C         2.078570        -1.065012        -1.008630
 C         3.163527        -1.327343        -0.050806
 O         3.784288        -2.522637         0.212879
 C         3.781637         0.015026         0.392062
 O         3.524443         1.174034        -0.360794
 C         2.097236         1.408633        -0.407478
 C         2.617221        -0.496512         1.057479
 H        -0.366232         0.361424         1.205786
 H        -0.665477         0.022523        -0.578466
 H        -0.009084        -1.202214         0.447215
 H         1.244148        -1.689112        -1.138770
 H         2.354142        -0.637575        -1.993510
 H         4.238657        -2.829134        -0.546652
 H         4.797937        -0.002710         0.743418
 H         1.651843         2.299285         0.226246
 H         1.921984         1.727015        -1.465812
 H         2.510369        -0.720182         2.132300
