19
Iteration:  1036charge 0 multiplicity 1
 C         0.003772         0.008969         0.329616
 C         1.521300        -0.024786        -0.059663
 C         2.055092        -1.090321        -1.028279
 C         3.206256        -1.313244        -0.088843
 O         3.767010        -2.556856         0.131903
 C         3.826862         0.010735         0.465879
 O         3.589739         1.252291        -0.214478
 C         2.130872         1.327194        -0.400315
 C         2.553553        -0.527104         1.046271
 H        -0.231465         0.709937         1.057700
 H        -0.554678         0.267951        -0.598962
 H        -0.440954        -0.915750         0.757033
 H         1.396975        -1.989590        -1.079500
 H         2.302787        -0.828220        -2.051531
 H         4.531738        -2.668215        -0.524898
 H         4.865987        -0.157489         0.810525
 H         1.883280         2.250401         0.165906
 H         1.935182         1.550351        -1.525285
 H         2.165532        -0.847152         2.102219
