19
Iteration:  1573charge 0 multiplicity 1
 C        -0.041788         0.365549         0.250785
 C         1.398524        -0.094666         0.039771
 C         1.950696        -1.247301        -0.852456
 C         3.267265        -1.349702         0.011551
 O         4.126828        -2.463998        -0.054967
 C         3.673362        -0.016395         0.456315
 O         3.521942         1.235152        -0.166607
 C         2.157943         1.200270        -0.537929
 C         2.511555        -0.607037         1.136500
 H        -0.103075         1.208199         1.008855
 H        -0.453052         0.690400        -0.686336
 H        -0.699008        -0.534678         0.645208
 H         1.493047        -2.287459        -0.802997
 H         2.073637        -1.019025        -1.922399
 H         4.131777        -2.749519        -1.012947
 H         4.735942        -0.037540         0.920008
 H         1.821980         2.091943        -0.098271
 H         2.086532         1.183945        -1.753224
 H         2.661136        -0.699054         2.163373
