19
Iteration:  3014charge 0 multiplicity 1
 C        -0.014133        -0.099242         0.311926
 C         1.482945         0.054575         0.048648
 C         2.071393        -1.066439        -0.901989
 C         3.212274        -1.307559         0.045328
 O         3.925146        -2.470790        -0.007553
 C         3.839201         0.008380         0.437478
 O         3.544831         1.061367        -0.528105
 C         2.077762         1.355713        -0.383599
 C         2.620285        -0.416913         1.237317
 H        -0.451154         0.473820         1.064617
 H        -0.568404         0.341193        -0.704342
 H        -0.372816        -1.119546         0.175750
 H         1.496896        -1.988337        -0.769492
 H         2.151116        -0.876758        -2.040386
 H         3.247970        -3.180085         0.185797
 H         4.742885         0.243348         0.912539
 H         1.842552         2.212773         0.296272
 H         1.673218         1.712734        -1.377709
 H         2.389905        -0.415795         2.241311
