19
Iteration:   274
 C        -0.078749         0.036200         0.234861
 C         1.511737         0.069403        -0.051688
 C         1.976329        -1.195019        -0.949988
 C         3.136847        -1.420318         0.012844
 O         3.965312        -2.494372         0.084311
 C         3.708049        -0.069728         0.328109
 O         3.638431         1.145852        -0.296267
 C         2.155728         1.417896        -0.301584
 C         2.539977        -0.464979         1.098539
 H        -0.331647         0.674711         1.133558
 H        -0.541661         0.482121        -0.627475
 H        -0.622004        -0.886262         0.496528
 H         1.176171        -1.899665        -0.883952
 H         2.285357        -1.063094        -2.050570
 H         4.904564        -2.268764        -0.244042
 H         4.661938        -0.215584         0.745407
 H         2.080636         2.260033         0.458373
 H         1.994420         1.889842        -1.255902
 H         2.470258        -0.689051         2.126799
