19
Iteration:  2448
 C         0.025728        -0.218223         0.281596
 C         1.456155         0.023891         0.035441
 C         2.060352        -1.013746        -1.036715
 C         3.236011        -1.308241         0.026425
 O         3.764947        -2.599688         0.161439
 C         3.827386         0.029846         0.388144
 O         3.549565         1.110349        -0.574571
 C         2.152616         1.448798        -0.243710
 C         2.575814        -0.390588         1.113097
 H        -0.438294         0.279735         1.224120
 H        -0.504941         0.245112        -0.663802
 H        -0.200601        -1.272095         0.260632
 H         1.354146        -1.939464        -1.158074
 H         2.197046        -0.524077        -2.069059
 H         4.644560        -2.479381         0.466626
 H         4.820034         0.298619         0.933230
 H         2.182137         2.113692         0.684976
 H         1.633975         1.999684        -1.047492
 H         2.403561        -0.565007         2.158899
