19
Iteration:  1677
 C         0.099804        -0.118953         0.294908
 C         1.533733         0.035838         0.036118
 C         2.119054        -0.986569        -1.077311
 C         3.280103        -1.355720        -0.007885
 O         3.751444        -2.676244         0.251892
 C         3.793484         0.064069         0.416112
 O         3.458201         1.114577        -0.544665
 C         2.057971         1.498108        -0.239696
 C         2.572658        -0.487740         1.062199
 H        -0.271349         0.536306         1.143783
 H        -0.540050         0.246548        -0.634415
 H        -0.205027        -1.124842         0.431020
 H         1.485117        -1.813691        -1.258104
 H         2.422135        -0.538589        -2.035042
 H         4.516620        -2.753935        -0.290618
 H         4.720945         0.236781         0.934674
 H         1.894820         2.271647         0.629542
 H         1.867944         1.984519        -1.157841
 H         2.402415        -0.660905         2.067861
