19
Iteration:  1774
 C         0.096674         0.290027         0.407848
 C         1.496020        -0.090093        -0.043794
 C         1.955123        -1.238244        -0.944474
 C         3.202458        -1.281803        -0.034175
 O         3.991631        -2.415762        -0.052296
 C         3.709385        -0.005616         0.522244
 O         3.521740         1.242077        -0.149867
 C         2.136991         1.119154        -0.645000
 C         2.461290        -0.662710         1.128332
 H        -0.029768         1.261722         0.962912
 H        -0.619009         0.460958        -0.428310
 H        -0.280211        -0.505454         0.968112
 H         1.467085        -2.265602        -0.718770
 H         2.062004        -1.051904        -2.030537
 H         4.872036        -2.137694        -0.199421
 H         4.650397         0.094377         1.150381
 H         1.713724         2.083549        -0.521350
 H         2.095762         1.117225        -1.833136
 H         2.293337        -0.655578         2.156414
