19
Iteration:  1332charge 0 multiplicity 1
 C        -0.012583         0.035150         0.292191
 C         1.470790        -0.007557         0.064426
 C         1.948670        -1.106230        -0.915672
 C         3.205431        -1.320545        -0.066415
 O         3.896162        -2.516041        -0.035259
 C         3.773490        -0.034738         0.434564
 O         3.614891         1.213609        -0.163517
 C         2.178940         1.297014        -0.554007
 C         2.558136        -0.500981         1.117437
 H        -0.331191         0.704906         1.085535
 H        -0.585937         0.356101        -0.630586
 H        -0.561733        -0.974365         0.529105
 H         1.330763        -2.053369        -0.713221
 H         1.945533        -0.862287        -2.002306
 H         4.817317        -2.393050        -0.142833
 H         4.633602        -0.053086         1.116583
 H         1.765497         2.329651        -0.227180
 H         2.111761         1.405931        -1.585019
 H         2.362779        -0.772577         2.242369
