19
Iteration:   607charge 0 multiplicity 1
 C         0.015800         0.181629         0.303103
 C         1.573574        -0.036363         0.022114
 C         2.071164        -1.133871        -0.979885
 C         3.322942        -1.263546        -0.083122
 O         3.800387        -2.552023         0.105764
 C         3.845955         0.067424         0.524217
 O         3.488473         1.217589        -0.236392
 C         2.074774         1.286085        -0.455422
 C         2.537616        -0.663391         1.011951
 H         0.074890         1.062775         0.781399
 H        -0.369451         0.458740        -0.680444
 H        -0.568787        -0.623706         0.805901
 H         1.540834        -2.029068        -0.823278
 H         2.106044        -0.939992        -2.060307
 H         3.913244        -2.962794        -0.744072
 H         4.657855         0.006442         1.252484
 H         1.574634         2.193085        -0.116466
 H         1.977599         1.237808        -1.556666
 H         2.307827        -1.111338         2.084502
