19
Iteration:  2203
 C         0.060877        -0.071908         0.289876
 C         1.541766         0.020686         0.117523
 C         2.034026        -1.113927        -0.922360
 C         3.204013        -1.336621        -0.019025
 O         3.799379        -2.622178        -0.039345
 C         3.751601         0.118753         0.496672
 O         3.559136         1.282340        -0.289324
 C         2.146852         1.337521        -0.541891
 C         2.524752        -0.494190         1.117952
 H        -0.332536         0.504169         1.078276
 H        -0.500016         0.227144        -0.725096
 H        -0.146926        -1.147350         0.509519
 H         1.381372        -1.953062        -0.751774
 H         2.108674        -0.917904        -2.056518
 H         4.811669        -2.510882        -0.032104
 H         4.750216         0.077375         1.116897
 H         1.729082         2.204291         0.064287
 H         1.996864         1.379317        -1.636630
 H         2.430952        -0.751640         2.186729
