19
Iteration:   506
 C        -0.013829         0.057050         0.305272
 C         1.528057        -0.044953        -0.049409
 C         2.170233        -1.120043        -0.968442
 C         3.265197        -1.383263         0.012074
 O         3.732100        -2.725021         0.003233
 C         3.840984         0.027595         0.433979
 O         3.526552         1.313610        -0.318398
 C         2.062880         1.394098        -0.394935
 C         2.534557        -0.459475         1.098645
 H        -0.143899         0.811158         1.024727
 H        -0.395222         0.280522        -0.609415
 H        -0.390860        -0.937730         0.876754
 H         1.587319        -2.110646        -1.108891
 H         2.508491        -0.769154        -1.903508
 H         4.483200        -2.807659         0.630875
 H         4.862037         0.057306         0.846563
 H         1.764654         2.149775         0.300270
 H         1.660757         1.744218        -1.424269
 H         2.398152        -0.297666         2.116362
