19
Iteration:  4288
 C         0.004584         0.132023         0.384010
 C         1.516658         0.018944         0.070421
 C         1.932877        -1.102299        -0.869756
 C         3.286842        -1.329584        -0.062803
 O         3.956011        -2.475469         0.060394
 C         3.749357         0.022977         0.397544
 O         3.505366         1.145660        -0.347050
 C         2.093391         1.263687        -0.511460
 C         2.605832        -0.617589         1.110184
 H        -0.221030         0.916572         1.091749
 H        -0.470131         0.436222        -0.698355
 H        -0.541821        -0.936581         0.535394
 H         1.220933        -2.084266        -0.651442
 H         1.878842        -0.971696        -1.927490
 H         4.748521        -2.317951        -0.475138
 H         4.751983         0.004977         0.912074
 H         1.702601         2.167195        -0.059340
 H         1.998094         1.369931        -1.591910
 H         2.414515        -0.772332         2.196691
