19
Iteration:  2164
 C        -0.026386         0.183463         0.295818
 C         1.467597        -0.045934         0.054410
 C         1.935172        -1.280710        -0.868249
 C         3.186472        -1.339759        -0.003220
 O         4.115125        -2.411900        -0.177211
 C         3.641593        -0.016828         0.515271
 O         3.611514         1.142271        -0.322595
 C         2.162097         1.230159        -0.445410
 C         2.457177        -0.469276         1.164949
 H        -0.201078         1.084809         0.958977
 H        -0.383481         0.441539        -0.645216
 H        -0.667821        -0.681269         0.566309
 H         1.284532        -2.205020        -0.845014
 H         2.229658        -1.076832        -1.886796
 H         4.873212        -2.233371         0.343003
 H         4.556179        -0.054227         1.021181
 H         1.865073         2.057269         0.144218
 H         1.849085         1.490318        -1.469270
 H         2.225696        -0.452528         2.199488
