19
Iteration:  1331charge 0 multiplicity 1
 C        -0.004896         0.035514         0.301599
 C         1.470172        -0.007668         0.060613
 C         1.953895        -1.101995        -0.917386
 C         3.205760        -1.320111        -0.057080
 O         3.891822        -2.520612        -0.034261
 C         3.773235        -0.031423         0.435403
 O         3.610759         1.212107        -0.167174
 C         2.177462         1.297466        -0.556060
 C         2.556192        -0.508084         1.112161
 H        -0.330533         0.694866         1.070595
 H        -0.606251         0.337879        -0.642198
 H        -0.545758        -0.974551         0.513721
 H         1.374226        -2.011874        -0.707039
 H         1.941956        -0.841888        -2.023137
 H         4.823256        -2.429206        -0.142956
 H         4.636822        -0.020518         1.138145
 H         1.770046         2.345691        -0.211621
 H         2.090563         1.432583        -1.588112
 H         2.361946        -0.767616         2.227122
