19
Iteration:   174charge 0 multiplicity 1
 C         0.140290        -0.210151         0.331030
 C         1.597988         0.048669        -0.090934
 C         2.033055        -1.129458        -1.064978
 C         3.111986        -1.274821        -0.082117
 O         3.697524        -2.526584         0.230203
 C         3.790813         0.018133         0.396222
 O         3.625400         1.213348        -0.316304
 C         2.178680         1.458506        -0.345688
 C         2.448424        -0.473142         1.018017
 H        -0.141912         0.569617         1.210508
 H        -0.724090        -0.153607        -0.430852
 H         0.108914        -1.176337         0.806164
 H         1.271910        -1.813226        -0.869513
 H         2.232656        -1.037639        -2.246107
 H         4.466069        -2.698565        -0.386557
 H         4.822457        -0.046824         0.924620
 H         2.072401         2.063980         0.635713
 H         2.044049         1.948410        -1.326673
 H         2.196794        -0.697570         2.080609
