19
Iteration:  4950
 C         0.036478         0.025947         0.356656
 C         1.524653        -0.051294        -0.008311
 C         2.049602        -1.054269        -1.020629
 C         3.219033        -1.359044        -0.084246
 O         3.945262        -2.552165         0.147865
 C         3.780890         0.061825         0.355480
 O         3.479410         1.160332        -0.373531
 C         2.092058         1.327176        -0.302129
 C         2.606187        -0.472905         1.048229
 H        -0.115539         0.932674         0.922049
 H        -0.574250        -0.059744        -0.549834
 H        -0.178555        -0.804146         0.957445
 H         1.436239        -1.948667        -1.297473
 H         2.243632        -0.718024        -2.088366
 H         3.238073        -3.173472         0.382407
 H         4.654245         0.161185         0.950667
 H         1.894283         2.157798         0.362028
 H         1.694169         1.687460        -1.322230
 H         2.350560        -0.502299         2.109976
