19
Iteration:  4693charge 0 multiplicity 1
 C         0.125678         0.035480         0.377263
 C         1.547626        -0.022274         0.032010
 C         1.929892        -1.134026        -0.975365
 C         3.154252        -1.292655        -0.063410
 O         4.009736        -2.554982         0.105622
 C         3.737874         0.002178         0.394821
 O         3.546239         1.235450        -0.246642
 C         2.082849         1.300881        -0.527392
 C         2.521720        -0.487249         1.113140
 H        -0.210545         0.798009         1.059121
 H        -0.450212         0.349699        -0.554544
 H        -0.366062        -0.891985         0.815951
 H         1.098852        -1.932994        -1.065183
 H         2.115728        -0.732457        -1.976538
 H         4.136042        -2.885382        -0.766828
 H         4.695180         0.065670         0.973376
 H         1.759036         2.123784         0.143640
 H         1.906483         1.420199        -1.748604
 H         2.364680        -0.834517         2.130965
