19
Iteration:   974
 C        -0.026378         0.124004         0.257291
 C         1.439587         0.007590        -0.074258
 C         1.910595        -1.239847        -0.921238
 C         3.150136        -1.307042        -0.016915
 O         3.982099        -2.358935        -0.096776
 C         3.744301        -0.081699         0.532244
 O         3.685173         1.063414        -0.375523
 C         2.226246         1.326895        -0.336442
 C         2.462817        -0.531456         1.151738
 H        -0.188499         0.936527         1.098568
 H        -0.519098         0.616766        -0.540294
 H        -0.425593        -0.953927         0.312891
 H         1.167140        -2.135285        -0.696456
 H         2.010122        -0.980837        -1.965799
 H         4.729324        -2.262680         0.582549
 H         4.666499        -0.137682         1.165385
 H         2.007208         1.953521         0.507945
 H         1.898382         1.738312        -1.252864
 H         2.231932        -0.437866         2.181945
