19
Iteration:  4017
 C        -0.003401        -0.044934         0.469830
 C         1.496647        -0.024568         0.026111
 C         2.115589        -1.014221        -1.044670
 C         3.238751        -1.339361         0.010865
 O         3.812166        -2.545173         0.224997
 C         3.857916         0.081582         0.331672
 O         3.509283         1.132311        -0.558130
 C         2.046791         1.336669        -0.331189
 C         2.584121        -0.473596         1.054757
 H        -0.410178         0.826212         1.078553
 H        -0.593211         0.109514        -0.430563
 H        -0.116937        -1.136889         0.874131
 H         1.637409        -2.003121        -1.223227
 H         2.500454        -0.615641        -2.017893
 H         3.752177        -3.160297        -0.572342
 H         4.729063         0.177758         0.890057
 H         2.051266         1.960000         0.549248
 H         1.801637         1.864821        -1.185613
 H         2.601824        -0.481709         2.116752
