19
Iteration:  2983
 C         0.019859         0.157292         0.398280
 C         1.487049        -0.026062         0.029768
 C         1.979628        -1.247175        -0.885798
 C         3.226664        -1.380740        -0.041257
 O         4.069152        -2.461010        -0.024153
 C         3.748191        -0.034162         0.448938
 O         3.518743         1.281244        -0.308487
 C         2.078130         1.242889        -0.580273
 C         2.548551        -0.484460         1.186441
 H        -0.155729         0.925597         1.109515
 H        -0.376935         0.558358        -0.696528
 H        -0.410840        -0.748405         0.805085
 H         1.384138        -2.091395        -0.676175
 H         2.000203        -1.060755        -2.078440
 H         3.537075        -3.258199        -0.179160
 H         4.663813         0.160468         0.952855
 H         1.671351         2.190732        -0.164215
 H         1.991012         1.124433        -1.678840
 H         2.379238        -0.457021         2.215744
