19
Iteration:  4446
 C         0.015437         0.009094         0.440989
 C         1.502053         0.019422         0.070437
 C         1.942795        -1.085914        -0.969169
 C         3.157588        -1.304415        -0.051196
 O         3.955884        -2.479943         0.042804
 C         3.776737        -0.010833         0.393383
 O         3.562175         1.069712        -0.437645
 C         2.124631         1.290402        -0.448782
 C         2.556423        -0.436552         1.073986
 H        -0.182716         0.652518         1.382470
 H        -0.699812         0.122992        -0.306479
 H        -0.178553        -0.930976         0.828243
 H         1.271642        -1.847881        -1.044231
 H         2.171621        -0.659809        -1.993133
 H         4.682582        -2.288476         0.599232
 H         4.733279        -0.129424         0.893155
 H         2.047398         2.144482         0.103111
 H         1.771331         1.565541        -1.479729
 H         2.322979        -0.649064         2.168039
