19
Iteration:  2714charge 0 multiplicity 1
 C         0.045950         0.185218         0.392889
 C         1.444920        -0.043311         0.029309
 C         2.038316        -1.202643        -0.930047
 C         3.216622        -1.320739         0.015372
 O         4.134068        -2.417909         0.041303
 C         3.799568        -0.010458         0.380338
 O         3.473392         1.073404        -0.485752
 C         2.080463         1.337365        -0.380873
 C         2.416004        -0.508861         1.100115
 H        -0.197050         1.087172         1.155326
 H        -0.430706         0.373555        -0.502228
 H        -0.384083        -0.741854         0.844731
 H         1.255069        -2.081646        -0.797644
 H         2.236056        -1.032312        -1.965735
 H         3.613241        -3.187847        -0.109218
 H         4.800259        -0.040019         0.920927
 H         1.789639         2.101241         0.423781
 H         1.881761         1.743942        -1.351767
 H         2.359481        -0.753771         2.158680
