19
Iteration:  2407
 C        -0.019979         0.026093         0.299753
 C         1.541383        -0.038019         0.054144
 C         2.061878        -1.096687        -0.986534
 C         3.202450        -1.338207         0.010809
 O         3.956530        -2.570289         0.114399
 C         3.789256         0.083111         0.439016
 O         3.556234         1.205966        -0.358168
 C         2.024388         1.311040        -0.489325
 C         2.566763        -0.475772         1.135005
 H        -0.350806         0.848160         1.125360
 H        -0.375829         0.343902        -0.584644
 H        -0.451394        -0.898631         0.560403
 H         1.295868        -1.990489        -0.989346
 H         2.328547        -0.859902        -1.977844
 H         3.760488        -3.047771        -0.758394
 H         4.811074        -0.044212         0.912673
 H         1.755262         1.987344         0.339325
 H         1.752831         1.557279        -1.492870
 H         2.419639        -0.529563         2.175437
