19
Iteration:  4158charge 0 multiplicity 1
 C         0.036768         0.049096         0.348972
 C         1.479727        -0.001531         0.009795
 C         1.924689        -1.224866        -0.882089
 C         3.268843        -1.321167        -0.059563
 O         3.884630        -2.571662         0.045273
 C         3.810022        -0.001387         0.348447
 O         3.542979         1.210181        -0.406265
 C         2.116206         1.422468        -0.411440
 C         2.566129        -0.460582         1.079271
 H        -0.229785         0.801358         1.057331
 H        -0.528581         0.317162        -0.528941
 H        -0.170438        -0.962727         0.810275
 H         1.401972        -2.190129        -0.375970
 H         1.899167        -1.269251        -1.942338
 H         4.855674        -2.515583         0.365680
 H         4.767835         0.184076         0.813186
 H         1.847049         1.904966         0.563580
 H         1.631960         1.922243        -1.416795
 H         2.390608        -0.757576         2.176048
