19
Iteration:  1012
 C         0.097305         0.195080         0.280224
 C         1.558427         0.024025         0.068490
 C         2.037963        -1.038783        -0.936639
 C         3.281318        -1.374387        -0.016345
 O         3.911710        -2.669665        -0.043958
 C         3.735492        -0.033679         0.543198
 O         3.472795         1.205519        -0.298865
 C         2.057784         1.337742        -0.518365
 C         2.462758        -0.626544         1.147451
 H        -0.172992         0.777627         1.095522
 H        -0.401851         0.550260        -0.773584
 H        -0.422857        -0.675081         0.609887
 H         1.469109        -1.870372        -1.078386
 H         2.413098        -0.755545        -1.989803
 H         4.829484        -2.512440        -0.169577
 H         4.479702         0.124719         1.322968
 H         1.783659         2.354985        -0.096173
 H         1.821034         1.401134        -1.615101
 H         2.409732        -0.586380         2.323750
