19
Iteration:  4668
 C        -0.015942         0.168222         0.381060
 C         1.492294        -0.049347        -0.013779
 C         2.099102        -1.164127        -0.931217
 C         3.185122        -1.346507         0.059112
 O         3.969349        -2.522850        -0.047506
 C         3.754719        -0.054298         0.438896
 O         3.497283         1.202014        -0.321692
 C         2.120175         1.304489        -0.516819
 C         2.521076        -0.537111         1.177015
 H        -0.341765         0.969626         0.971355
 H        -0.721987         0.349700        -0.467113
 H        -0.427341        -0.745812         0.983973
 H         1.328709        -2.065741        -0.908717
 H         2.204965        -0.788534        -1.958227
 H         4.762784        -2.222128        -0.449273
 H         4.711371         0.097888         0.840689
 H         1.809110         2.189112         0.147233
 H         1.960701         1.362476        -1.712738
 H         2.505716        -0.680501         2.288128
