19
Iteration:  2544charge 0 multiplicity 1
 C         0.055766         0.165719         0.273011
 C         1.513583        -0.027499         0.010215
 C         1.830579        -1.257170        -0.757480
 C         3.190562        -1.339807         0.011872
 O         4.105960        -2.422102        -0.106175
 C         3.720485        -0.035235         0.465509
 O         3.572513         1.203076        -0.289010
 C         2.120483         1.262576        -0.554763
 C         2.493302        -0.513052         1.223964
 H        -0.170194         0.765812         1.030757
 H        -0.556311         0.605014        -0.665625
 H        -0.362476        -0.841462         0.554051
 H         1.391854        -2.096060        -0.460890
 H         1.784050        -1.144278        -1.868854
 H         4.155725        -2.670341        -1.044731
 H         4.708125        -0.023070         1.099235
 H         1.680412         2.092267        -0.010272
 H         2.169791         1.339849        -1.725930
 H         2.390646        -0.393758         2.309914
