19
Iteration:  2610charge 0 multiplicity 1
 C         0.119433         0.022827         0.443954
 C         1.522796        -0.002816         0.016751
 C         2.088725        -1.103851        -1.031642
 C         3.204649        -1.325995        -0.039452
 O         3.863945        -2.611245         0.117255
 C         3.763551         0.025118         0.349615
 O         3.463945         1.163367        -0.449098
 C         2.056616         1.412259        -0.403280
 C         2.551112        -0.496797         1.093967
 H        -0.090449         0.714902         1.130777
 H        -0.608881         0.104243        -0.504583
 H        -0.138394        -0.988668         0.825881
 H         1.641751        -2.016949        -1.096277
 H         2.343276        -0.668239        -2.053992
 H         4.562608        -2.599074         0.804025
 H         4.737558         0.119419         0.908274
 H         1.886755         2.140746         0.331758
 H         1.547178         1.795439        -1.360051
 H         2.321752        -0.614650         2.115027
