19
Iteration:  1251charge 0 multiplicity 1
 C         0.082260        -0.165585         0.229730
 C         1.511700         0.089021         0.083482
 C         1.953212        -1.025693        -1.087425
 C         3.165141        -1.297648        -0.114805
 O         3.830547        -2.526608         0.292489
 C         3.834980        -0.011747         0.388775
 O         3.537522         1.158305        -0.383768
 C         2.173655         1.483303        -0.242914
 C         2.572500        -0.585215         1.036065
 H        -0.549631         0.395829         0.984879
 H        -0.316123         0.316021        -0.783775
 H        -0.146030        -1.203722         0.163094
 H         1.299138        -1.827149        -1.051327
 H         2.093612        -0.687816        -2.187489
 H         4.109236        -2.925368        -0.510847
 H         4.812594        -0.040947         0.809723
 H         2.012142         2.103497         0.730137
 H         2.018223         1.865347        -1.284899
 H         2.392286        -0.743699         2.045345
