19
Iteration:  3614charge 0 multiplicity 1
 C        -0.006215        -0.139533         0.306315
 C         1.527247         0.056765         0.039959
 C         2.061332        -1.024262        -0.937273
 C         3.154662        -1.316458         0.047101
 O         3.914243        -2.533399         0.170643
 C         3.775843         0.004288         0.245130
 O         3.527456         1.148186        -0.483164
 C         2.120918         1.364086        -0.326715
 C         2.602808        -0.427338         1.142407
 H        -0.425568         0.377311         1.298017
 H        -0.524886         0.325414        -0.479686
 H        -0.218652        -1.152717         0.206102
 H         1.397794        -1.863473        -1.049362
 H         2.245101        -0.720168        -1.953660
 H         3.343243        -3.284658        -0.005759
 H         4.745341        -0.044098         0.649737
 H         1.974767         2.259443         0.265067
 H         1.818096         1.758988        -1.368388
 H         2.878909        -0.506333         2.195241
