19
Iteration:  4207charge 0 multiplicity 1
 C         0.018398        -0.132539         0.431584
 C         1.461169         0.060511         0.063739
 C         2.120917        -0.953562        -1.030195
 C         3.196557        -1.340441         0.013236
 O         3.800192        -2.554102         0.185273
 C         3.793312         0.047542         0.415448
 O         3.511455         1.053730        -0.538270
 C         2.090994         1.376735        -0.424047
 C         2.623050        -0.482652         1.068315
 H        -0.066615         0.661127         1.349162
 H        -0.747655         0.079745        -0.366968
 H        -0.125246        -1.038458         0.984601
 H         1.461936        -1.688349        -1.363420
 H         2.580423        -0.285210        -1.914045
 H         4.399633        -2.690734        -0.525877
 H         4.770294         0.071167         0.955791
 H         1.844401         2.168761         0.293367
 H         1.743550         1.600386        -1.381684
 H         2.629859        -0.592463         2.116762
