19
Iteration:  4116
 C         0.074957         0.191895         0.450029
 C         1.545081        -0.015376         0.073294
 C         2.004227        -1.131603        -0.865239
 C         3.199683        -1.353688        -0.002344
 O         4.016273        -2.496361        -0.094809
 C         3.734099         0.008031         0.451351
 O         3.469347         1.142047        -0.371154
 C         2.062308         1.219094        -0.639889
 C         2.476561        -0.531378         1.197946
 H        -0.081841         0.990993         1.272735
 H        -0.340174         0.467739        -0.502048
 H        -0.465067        -0.709482         0.874304
 H         1.339282        -2.019536        -0.862372
 H         2.158702        -0.638692        -1.887208
 H         4.857452        -2.342126         0.357687
 H         4.742968        -0.228046         0.788305
 H         1.769949         2.139472        -0.162465
 H         1.977940         1.261684        -1.772245
 H         2.242216        -0.706862         2.319993
