19
Iteration:  2247
 C         0.089033        -0.091857         0.397402
 C         1.509344         0.030678        -0.109414
 C         2.120735        -0.994902        -1.225692
 C         3.211035        -1.333907        -0.084583
 O         3.826776        -2.534078         0.375241
 C         3.735062        -0.013723         0.363145
 O         3.515401         1.193783        -0.412943
 C         2.119278         1.442139        -0.222097
 C         2.521774        -0.590033         1.012073
 H        -0.200479         0.589417         1.108283
 H        -0.721626         0.044862        -0.466273
 H        -0.052148        -1.116951         0.826705
 H         1.425528        -1.766551        -1.483027
 H         2.588012        -0.478524        -2.171275
 H         4.305296        -3.000756        -0.396270
 H         4.664597         0.102001         1.024485
 H         1.910602         1.994576         0.695735
 H         1.715271         1.745822        -1.169882
 H         2.348719        -0.853151         2.027175
