19
Iteration:  1508
 C         0.020003        -0.018988         0.345682
 C         1.508536         0.050100         0.020491
 C         2.131208        -1.043900        -1.013059
 C         3.200626        -1.307841        -0.011454
 O         3.893492        -2.666149         0.142846
 C         3.779875         0.017257         0.425736
 O         3.541654         1.215486        -0.362648
 C         2.112745         1.396331        -0.418916
 C         2.503547        -0.472733         1.079860
 H        -0.282852         0.730982         1.151244
 H        -0.642225         0.130093        -0.494900
 H        -0.232120        -1.119264         0.649029
 H         1.425017        -1.938486        -1.132848
 H         2.453817        -0.724166        -1.978492
 H         3.639134        -3.080888        -0.665599
 H         4.739282        -0.043463         0.954502
 H         1.751538         2.187908         0.255957
 H         1.917915         1.560720        -1.446763
 H         2.331012        -0.738344         2.048973
