19
Iteration:  2227charge 0 multiplicity 1
 C         0.095270        -0.119521         0.366736
 C         1.503735        -0.005293        -0.098768
 C         2.138100        -1.101222        -1.041001
 C         3.222494        -1.347454        -0.041283
 O         3.723983        -2.590894         0.177274
 C         3.831025         0.051058         0.407788
 O         3.520827         1.252011        -0.279116
 C         2.050711         1.410380        -0.371974
 C         2.560767        -0.454915         0.992694
 H         0.016828         0.670144         1.070590
 H        -0.703350         0.166575        -0.484905
 H        -0.182112        -1.120890         0.885454
 H         1.557586        -1.939951        -1.145177
 H         2.535886        -0.767998        -2.076237
 H         4.565679        -2.768012        -0.271523
 H         4.830725        -0.079807         0.852744
 H         1.693461         1.930742         0.604633
 H         1.845088         1.895647        -1.400236
 H         2.227473        -0.565058         1.985155
