19
Iteration:   949charge 0 multiplicity 1
 C         0.032249         0.072740         0.262159
 C         1.486680         0.106938         0.013111
 C         1.975872        -1.127545        -0.924258
 C         3.173420        -1.358623        -0.039504
 O         3.966117        -2.578643        -0.004949
 C         3.746109        -0.084663         0.382047
 O         3.558401         1.131916        -0.315939
 C         2.187756         1.444975        -0.359704
 C         2.480319        -0.518316         1.106073
 H        -0.325204         0.793917         0.968849
 H        -0.426176         0.330978        -0.661548
 H        -0.208756        -0.993618         0.499787
 H         1.171418        -1.963762        -0.836152
 H         2.145575        -0.869846        -1.948561
 H         4.707571        -2.405377         0.615731
 H         4.618272         0.001034         1.048298
 H         1.991960         2.227850         0.357150
 H         1.815561         1.747224        -1.419526
 H         2.266655        -0.956229         2.183616
