19
Iteration:  4814
 C         0.096454         0.076380         0.315403
 C         1.554903        -0.002523        -0.047308
 C         1.973900        -1.280187        -0.941241
 C         3.203641        -1.336541        -0.061134
 O         4.000572        -2.493336        -0.009518
 C         3.742620        -0.026853         0.428369
 O         3.516418         1.260016        -0.285138
 C         2.137159         1.395638        -0.381101
 C         2.505022        -0.499846         1.099299
 H        -0.139823         0.876454         0.965487
 H        -0.602671         0.017569        -0.470203
 H        -0.206838        -0.779285         0.856323
 H         1.089570        -1.947446        -0.774636
 H         2.187664        -1.243041        -2.036958
 H         3.467259        -3.127566         0.610062
 H         4.780107        -0.081185         0.591608
 H         1.731963         2.150345         0.293826
 H         1.798138         1.741608        -1.420836
 H         2.206493        -0.587102         2.105900
