19
Iteration:  3655charge 0 multiplicity 1
 C         0.076518        -0.102905         0.446093
 C         1.485257        -0.008296        -0.041846
 C         2.128093        -1.061559        -1.082229
 C         3.250344        -1.271456         0.011413
 O         3.853169        -2.554054         0.149697
 C         3.785467         0.039333         0.389720
 O         3.509476         1.137238        -0.493801
 C         2.134570         1.391858        -0.371018
 C         2.510541        -0.476921         1.038988
 H         0.043236         0.535387         1.388602
 H        -0.785205         0.122437        -0.137012
 H        -0.105393        -1.102736         0.987378
 H         1.415988        -1.847273        -1.296225
 H         2.475051        -0.706416        -2.104837
 H         3.143568        -3.046422         0.609868
 H         4.661442         0.215395         1.063445
 H         1.847843         2.049503         0.452014
 H         1.759803         1.990918        -1.330413
 H         2.433610        -0.470133         2.124890
