19
Iteration:  1492charge 0 multiplicity 1
 C         0.159854        -0.112567         0.300107
 C         1.572471         0.012452        -0.010972
 C         2.141217        -0.906008        -1.033745
 C         3.266804        -1.379237        -0.012321
 O         3.716370        -2.636107         0.226408
 C         3.804686         0.060898         0.416771
 O         3.448602         1.161334        -0.405969
 C         2.045551         1.417324        -0.364998
 C         2.604247        -0.539015         1.064752
 H        -0.034357         0.616975         1.041269
 H        -0.468027         0.077252        -0.639988
 H        -0.047174        -1.103574         0.613436
 H         1.436032        -1.650265        -1.271413
 H         2.464893        -0.383113        -2.005255
 H         3.466470        -3.202203        -0.475779
 H         4.730762         0.313344         0.962704
 H         1.781116         2.143581         0.406403
 H         1.550476         1.889117        -1.359522
 H         2.477806        -0.562313         2.249677
