19
Iteration:   613charge 0 multiplicity 1
 C        -0.001422         0.203777         0.336370
 C         1.515883        -0.057902         0.029536
 C         2.126405        -1.114853        -0.983648
 C         3.327870        -1.315914        -0.089328
 O         3.801997        -2.542814         0.101236
 C         3.846765         0.037438         0.509622
 O         3.508357         1.234035        -0.188901
 C         2.072728         1.275638        -0.521665
 C         2.565691        -0.652741         1.044318
 H        -0.118492         1.285953         0.834918
 H        -0.473069         0.376088        -0.664372
 H        -0.727238        -0.612770         0.726479
 H         1.577986        -2.154499        -0.918732
 H         2.209420        -0.821783        -2.054329
 H         3.854879        -2.983238        -0.742106
 H         4.745998         0.105595         1.123435
 H         1.630678         2.219873        -0.126579
 H         1.725696         1.235203        -1.666559
 H         2.303514        -1.020631         1.960449
