19
Iteration:  1882charge 0 multiplicity 1
 C         0.013426        -0.135610         0.366885
 C         1.504435         0.023062        -0.042793
 C         2.105894        -1.077446        -1.084018
 C         3.204177        -1.354230        -0.011487
 O         3.751191        -2.606993         0.145735
 C         3.821831         0.052313         0.406955
 O         3.572391         1.236844        -0.397423
 C         2.090926         1.400378        -0.325674
 C         2.574917        -0.426161         1.037162
 H        -0.255391         0.653264         1.235038
 H        -0.702521        -0.163613        -0.437562
 H        -0.089706        -1.151920         0.805331
 H         1.353243        -1.980276        -1.306251
 H         2.423292        -0.755853        -2.090817
 H         4.489785        -2.564121         0.765423
 H         4.924986        -0.139517         0.733535
 H         1.902295         2.214371         0.435283
 H         1.729202         1.735434        -1.427686
 H         2.392388        -0.517243         2.103851
