19
Iteration:   734
 C         0.045136         0.028247         0.261369
 C         1.525658        -0.032659         0.007457
 C         2.064151        -1.136932        -0.989132
 C         3.253184        -1.308920         0.001435
 O         3.755984        -2.609284         0.010718
 C         3.798792         0.053801         0.416239
 O         3.565680         1.237137        -0.326762
 C         2.143053         1.328449        -0.390687
 C         2.530018        -0.433432         1.087454
 H        -0.221525         0.585204         1.249133
 H        -0.491573         0.178519        -0.679479
 H        -0.177957        -1.025222         0.727104
 H         1.387934        -2.104963        -1.049720
 H         2.309866        -0.799007        -2.005733
 H         4.187903        -2.762721         0.917825
 H         4.710789         0.005651         0.971272
 H         1.809585         2.134156         0.344559
 H         1.855649         1.629576        -1.369646
 H         2.298439        -0.672565         2.171062
