19
Iteration:  3535charge 0 multiplicity 1
 C        -0.016127         0.230318         0.428660
 C         1.506251        -0.028157         0.033196
 C         1.955177        -1.200943        -0.915556
 C         3.199572        -1.349656        -0.066028
 O         4.161540        -2.369024         0.032598
 C         3.704096        -0.023156         0.430088
 O         3.512125         1.147774        -0.272442
 C         2.126287         1.201796        -0.631894
 C         2.491823        -0.580157         1.098153
 H        -0.120825         1.256917         1.032130
 H        -0.724673         0.218469        -0.318234
 H        -0.317848        -0.369729         1.328542
 H         1.175621        -1.923305        -0.966545
 H         2.158019        -0.756431        -1.898983
 H         3.685484        -3.242847        -0.031560
 H         4.664387        -0.112538         1.023020
 H         1.799649         2.164532        -0.198560
 H         2.175612         1.176205        -1.836440
 H         2.268245        -0.676623         2.142194
