19
Iteration:  2023
 C         0.129940        -0.093143         0.316997
 C         1.559637         0.026149         0.030040
 C         2.097379        -0.938801        -1.006080
 C         3.209467        -1.322823        -0.086058
 O         3.770814        -2.569649         0.250777
 C         3.774114         0.024917         0.389214
 O         3.496084         1.166745        -0.428514
 C         2.056208         1.354521        -0.386952
 C         2.570712        -0.567477         1.051146
 H        -0.215125         0.710947         1.092639
 H        -0.585106        -0.038994        -0.425296
 H        -0.032964        -1.117421         0.713957
 H         1.341383        -1.758280        -1.325520
 H         2.442480        -0.487312        -1.920674
 H         4.571285        -2.764185        -0.246638
 H         4.804624         0.120773         0.924509
 H         1.923199         2.224780         0.420208
 H         1.516558         1.708796        -1.241810
 H         2.325658        -0.760987         2.112338
