19
Iteration:  4363charge 0 multiplicity 1
 C        -0.014122        -0.044130         0.393524
 C         1.472431        -0.048064         0.097063
 C         1.935837        -1.074217        -0.929342
 C         3.245864        -1.265960        -0.059600
 O         3.815362        -2.549724         0.112069
 C         3.883188         0.035882         0.301326
 O         3.543087         1.211014        -0.453022
 C         2.156107         1.337697        -0.409965
 C         2.611280        -0.533990         1.068301
 H        -0.354136         0.773686         0.960925
 H        -0.572756         0.195822        -0.579715
 H        -0.168204        -1.157760         0.703006
 H         1.344257        -2.076680        -0.925651
 H         1.986117        -0.798159        -2.010059
 H         4.535224        -2.307042         0.762753
 H         4.876479        -0.040205         0.823514
 H         1.893376         2.173033         0.370515
 H         1.802875         1.573790        -1.392847
 H         2.569029        -0.610244         2.158915
