19
Iteration:  2825
 C         0.091900        -0.053379         0.425025
 C         1.566454         0.008608        -0.007965
 C         2.089836        -1.062886        -1.014562
 C         3.161363        -1.392465        -0.057021
 O         3.922433        -2.484950         0.244007
 C         3.796708        -0.023649         0.342931
 O         3.488406         1.158571        -0.438360
 C         2.046812         1.409411        -0.406510
 C         2.524910        -0.467276         1.015396
 H        -0.115968         0.697609         1.327515
 H        -0.690581         0.042254        -0.264248
 H         0.024396        -1.045528         0.983544
 H         1.318145        -1.912308        -1.209278
 H         2.355150        -0.563609        -1.899355
 H         3.712550        -3.295396        -0.338833
 H         4.740525         0.067739         0.838580
 H         1.833191         2.092067         0.387748
 H         1.852214         1.811871        -1.368035
 H         2.201244        -0.497008         2.041055
