19
Iteration:   484
 C         0.114857         0.041756         0.262743
 C         1.566210         0.042190        -0.009200
 C         1.951777        -1.149823        -0.939062
 C         3.153508        -1.421042        -0.062452
 O         3.842435        -2.642607         0.016019
 C         3.758652         0.061671         0.384048
 O         3.541445         1.290263        -0.197834
 C         2.139955         1.379194        -0.467208
 C         2.561976        -0.493104         1.093182
 H        -0.219467         0.755810         0.953590
 H        -0.302032         0.046689        -0.684807
 H         0.041512        -1.005130         0.850135
 H         1.062913        -1.882232        -0.839741
 H         2.191888        -1.063188        -1.964344
 H         4.424678        -2.668057         0.802300
 H         4.687827         0.015607         1.002585
 H         1.667214         2.197778         0.050341
 H         2.016935         1.617661        -1.561561
 H         2.457262        -0.711251         2.111120
