19
Iteration:  2823charge 0 multiplicity 1
 C         0.095512        -0.058018         0.429130
 C         1.542785         0.022800        -0.007586
 C         2.093495        -1.084991        -1.024449
 C         3.175732        -1.386394        -0.049625
 O         3.917999        -2.485856         0.232286
 C         3.786407        -0.028932         0.335842
 O         3.483032         1.166498        -0.413925
 C         2.054781         1.402834        -0.425874
 C         2.545408        -0.466735         1.030467
 H        -0.057160         0.735817         1.301430
 H        -0.662434         0.053476        -0.224294
 H        -0.006251        -1.011613         0.980029
 H         1.353527        -1.942306        -1.201117
 H         2.299751        -0.599932        -1.897956
 H         3.664629        -3.214801        -0.350132
 H         4.690888         0.057209         0.886326
 H         1.859901         2.106817         0.316050
 H         1.857213         1.825534        -1.410924
 H         2.194167        -0.511849         2.009339
