19
Iteration:   649charge 0 multiplicity 1
 C         0.110975         0.035613         0.312285
 C         1.541916         0.037036        -0.036734
 C         1.979354        -1.134356        -0.988697
 C         3.101745        -1.427278         0.001025
 O         3.927720        -2.518825         0.096541
 C         3.727028        -0.079347         0.480835
 O         3.611561         1.212687        -0.240710
 C         2.149361         1.418470        -0.468560
 C         2.466631        -0.501286         1.033399
 H        -0.184494         0.711130         1.104063
 H        -0.436405         0.266646        -0.593024
 H        -0.208506        -1.047400         0.761395
 H         1.130967        -1.880601        -0.909843
 H         2.243801        -0.974160        -2.022859
 H         4.435419        -2.552251        -0.696994
 H         4.698639        -0.076904         0.981786
 H         1.902039         2.252245         0.180878
 H         1.965678         1.737876        -1.647757
 H         2.039721        -0.531870         2.112393
