19
Iteration:  3905charge 0 multiplicity 1
 C        -0.011774         0.229511         0.419239
 C         1.457321        -0.008856        -0.032088
 C         2.026981        -1.317910        -0.906889
 C         3.225081        -1.381410        -0.008821
 O         4.040332        -2.477884        -0.053027
 C         3.778532        -0.014855         0.393236
 O         3.518576         1.198194        -0.363961
 C         2.089481         1.302964        -0.421397
 C         2.535424        -0.476014         1.058192
 H        -0.226841         0.882027         1.219897
 H        -0.577240         0.569086        -0.535253
 H        -0.466491        -0.834471         0.772564
 H         1.230390        -2.069725        -0.736700
 H         2.326271        -1.089147        -1.861724
 H         4.264363        -2.883568         0.751939
 H         4.743816        -0.067277         0.975986
 H         1.657456         2.031713         0.311360
 H         1.813393         1.529885        -1.423739
 H         2.223757        -0.399839         2.125345
