19
Iteration:   307charge 0 multiplicity 1
 C         0.082366        -0.039265         0.369442
 C         1.523536        -0.020369         0.003787
 C         2.141073        -0.941286        -1.000287
 C         3.268657        -1.277326        -0.039290
 O         3.711259        -2.613440         0.102231
 C         3.725168         0.081412         0.506383
 O         3.566087         1.116433        -0.377573
 C         2.101544         1.357052        -0.442888
 C         2.547202        -0.555512         1.062586
 H        -0.082800         0.889457         0.957948
 H        -0.532860         0.125068        -0.496550
 H        -0.220725        -1.058301         0.725961
 H         1.386987        -1.718494        -1.090830
 H         2.380190        -0.527873        -2.032337
 H         4.629686        -2.879313        -0.147383
 H         4.516782         0.218660         1.147756
 H         1.763700         2.270234         0.202541
 H         1.750865         1.487418        -1.491770
 H         2.428598        -0.921189         2.073276
