19
Iteration:   461
 C        -0.049456         0.009348         0.314205
 C         1.450258        -0.019142         0.030019
 C         1.947356        -1.139329        -0.977892
 C         3.162550        -1.271501        -0.104764
 O         3.894215        -2.416324         0.003809
 C         3.810349        -0.059333         0.410940
 O         3.661825         1.190724        -0.218007
 C         2.252896         1.305725        -0.495309
 C         2.484775        -0.486060         1.125800
 H        -0.142465         0.826965         1.049038
 H        -0.576301         0.174500        -0.570425
 H        -0.359816        -0.943765         0.950484
 H         1.303573        -2.043594        -0.709504
 H         1.966427        -1.085722        -2.051102
 H         4.447747        -2.507296         0.832779
 H         4.772372        -0.344024         0.943197
 H         1.753362         2.154367        -0.114462
 H         2.226111         1.418735        -1.642559
 H         2.147663        -0.914912         2.058281
