19
Iteration:  4828charge 0 multiplicity 1
 C         0.020658         0.108731         0.371275
 C         1.526125         0.003368        -0.051444
 C         1.986113        -1.202764        -0.951038
 C         3.153225        -1.416708        -0.041195
 O         4.031770        -2.496840         0.057958
 C         3.768679         0.023852         0.361764
 O         3.541762         1.246088        -0.209210
 C         2.034397         1.370498        -0.476838
 C         2.602848        -0.556689         1.059316
 H        -0.054903         1.087813         0.934640
 H        -0.565566         0.271311        -0.510019
 H        -0.313479        -0.719553         0.862464
 H         1.375496        -2.121895        -0.855771
 H         2.052308        -1.065329        -2.100599
 H         3.549650        -3.301382         0.063958
 H         4.726303        -0.063353         0.916369
 H         1.645507         2.133936         0.176329
 H         2.017367         1.665903        -1.584451
 H         2.431323        -0.640666         2.214936
