19
Iteration:  3188charge 0 multiplicity 1
 C         0.022194         0.134079         0.410015
 C         1.517863        -0.002069         0.027789
 C         2.055441        -1.190157        -0.979603
 C         3.221223        -1.368926        -0.011935
 O         4.108667        -2.498565         0.061360
 C         3.750569        -0.048903         0.386204
 O         3.450740         1.147005        -0.443615
 C         2.046081         1.353500        -0.429997
 C         2.494950        -0.459188         1.112131
 H        -0.111230         0.942796         1.149440
 H        -0.540096         0.476116        -0.425781
 H        -0.494513        -0.683386         0.902500
 H         1.497408        -2.156701        -1.080055
 H         2.343681        -0.834702        -1.896834
 H         3.538922        -3.316354         0.127674
 H         4.739443         0.132780         0.987421
 H         1.785024         2.054468         0.309490
 H         1.739806         1.653213        -1.460930
 H         2.395829        -0.470493         2.278913
