19
Iteration:  4221
 C         0.087304        -0.071062         0.538578
 C         1.570577        -0.013791         0.015664
 C         2.118706        -1.000793        -1.039600
 C         3.204007        -1.306891        -0.041663
 O         3.820941        -2.593620         0.206657
 C         3.789566         0.118716         0.438097
 O         3.510802         1.137249        -0.528600
 C         2.090257         1.381967        -0.407232
 C         2.503202        -0.521552         1.037244
 H        -0.308206         0.681758         1.231826
 H        -0.594046         0.157627        -0.416383
 H        -0.191147        -1.191500         0.734678
 H         1.375566        -1.947753        -1.103693
 H         2.386753        -0.725362        -2.054755
 H         4.150109        -2.955261        -0.673937
 H         4.718259         0.259853         0.883718
 H         2.036487         2.189179         0.324495
 H         1.747710         1.693405        -1.387216
 H         2.144449        -0.705475         2.080184
