19
Iteration:  1932charge 0 multiplicity 1
 C        -0.099148         0.181279         0.357609
 C         1.443732        -0.048533         0.064335
 C         1.958567        -1.217309        -0.890042
 C         3.227333        -1.361403         0.002920
 O         4.015060        -2.494410        -0.138586
 C         3.773902         0.033037         0.477961
 O         3.546036         1.195578        -0.175860
 C         2.193629         1.222459        -0.630777
 C         2.516287        -0.517349         1.132651
 H        -0.100007         0.987406         0.961254
 H        -0.543320         0.548327        -0.577821
 H        -0.709777        -0.724465         0.706547
 H         1.435615        -2.108210        -0.798922
 H         2.109746        -1.093134        -2.000247
 H         4.832005        -2.171474         0.203852
 H         4.536135         0.059738         1.177246
 H         1.787450         2.207934        -0.343482
 H         2.216692         1.292151        -1.709447
 H         2.423255        -0.534234         2.195896
