19
Iteration:  3518charge 0 multiplicity 1
 C         0.082638         0.120003         0.419612
 C         1.472332        -0.022617        -0.011594
 C         1.938286        -1.225262        -0.922327
 C         3.164995        -1.320787        -0.029073
 O         4.067604        -2.413899         0.022093
 C         3.752624        -0.016850         0.474138
 O         3.570744         1.210121        -0.312166
 C         2.112382         1.295891        -0.564754
 C         2.464988        -0.484293         1.072674
 H        -0.052813         1.050874         1.035642
 H        -0.536821         0.107450        -0.573294
 H        -0.173936        -0.719739         1.030705
 H         1.508057        -2.234997        -0.497873
 H         1.900683        -1.427287        -2.005702
 H         3.525918        -3.272767        -0.071191
 H         4.773153        -0.063881         0.922823
 H         1.853861         2.278205        -0.041828
 H         1.998074         1.391830        -1.586747
 H         2.275878        -0.796810         2.120838
