19
Iteration:  2643
 C         0.136193        -0.337712         0.483430
 C         1.548889         0.037672         0.006751
 C         2.048444        -1.043720        -1.064173
 C         3.148256        -1.292204        -0.004211
 O         3.683099        -2.610885         0.166176
 C         3.844534         0.086667         0.319252
 O         3.593916         1.238224        -0.477301
 C         2.115744         1.414137        -0.404555
 C         2.585412        -0.341503         1.041387
 H        -0.228739         0.186166         1.254903
 H        -0.622270        -0.187446        -0.420069
 H         0.164778        -1.387220         0.778708
 H         1.594964        -1.943366        -1.171433
 H         2.212679        -0.482636        -2.036329
 H         3.576915        -2.891109         1.051199
 H         4.808776         0.138470         0.814357
 H         2.072741         2.045667         0.385124
 H         1.626422         1.837506        -1.337814
 H         2.367464        -0.434535         2.073333
