19
Iteration:  2149
 C         0.079969         0.270641         0.270084
 C         1.466042        -0.105585        -0.023696
 C         1.992934        -1.268511        -0.860319
 C         3.243066        -1.374540         0.047809
 O         4.117028        -2.410731        -0.133374
 C         3.748091        -0.044108         0.486121
 O         3.512873         1.112361        -0.366161
 C         2.089727         1.342692        -0.414574
 C         2.341208        -0.576036         1.137245
 H         0.081489         1.050244         0.961836
 H        -0.663700         0.668838        -0.614226
 H        -0.436458        -0.525887         0.908555
 H         1.395509        -2.054649        -0.602110
 H         1.915756        -1.134854        -1.995287
 H         4.994522        -2.116390         0.277308
 H         4.721777         0.022819         1.177982
 H         1.653555         2.095084         0.419773
 H         1.860275         1.732346        -1.499604
 H         2.007604        -0.713316         2.193191
