19
Iteration:  1611
 C         0.109551        -0.005080         0.319687
 C         1.551529         0.017428        -0.017910
 C         2.015087        -1.150621        -0.923073
 C         3.225096        -1.306012        -0.085504
 O         3.846527        -2.567866         0.106459
 C         3.722943         0.061487         0.445054
 O         3.543226         1.246334        -0.253770
 C         2.166049         1.369131        -0.485963
 C         2.489358        -0.573940         1.069776
 H        -0.207469         0.737205         1.123267
 H        -0.615637         0.241531        -0.535605
 H        -0.094901        -0.981753         0.678854
 H         1.341413        -2.009192        -0.815971
 H         2.050717        -0.791003        -1.943473
 H         4.421792        -2.769394        -0.703294
 H         4.560224         0.005725         1.023692
 H         1.655905         2.280328        -0.057345
 H         1.910715         1.485920        -1.478257
 H         2.523384        -0.807463         2.164918
