19
Iteration:  1157charge 0 multiplicity 1
 C         0.021531         0.113267         0.332819
 C         1.474621         0.010163        -0.063470
 C         1.861200        -1.204945        -1.006333
 C         3.092955        -1.395182        -0.063109
 O         4.040784        -2.506176         0.053926
 C         3.742452        -0.090399         0.397387
 O         3.670310         1.256859        -0.168641
 C         2.165893         1.363609        -0.462664
 C         2.471315        -0.506274         1.078397
 H        -0.212912         0.810961         1.043876
 H        -0.596148         0.474797        -0.478233
 H        -0.386564        -0.908038         0.709740
 H         1.129726        -2.049879        -0.776443
 H         2.042582        -1.221039        -2.059310
 H         4.943884        -2.115470         0.123082
 H         4.661428        -0.230083         0.953540
 H         1.741954         2.060915         0.189132
 H         2.096867         1.578545        -1.543819
 H         2.382558        -0.699487         2.077131
