19
Iteration:  1863
 C         0.027781        -0.198962         0.361913
 C         1.521679         0.017792         0.022854
 C         2.194267        -0.893024        -0.996972
 C         3.224357        -1.330844         0.026772
 O         3.734741        -2.643983         0.182125
 C         3.796368         0.034937         0.288788
 O         3.491768         1.115419        -0.552490
 C         2.125420         1.444956        -0.282538
 C         2.548494        -0.486605         1.070360
 H        -0.271306         0.563258         1.052425
 H        -0.477481         0.080897        -0.641768
 H        -0.195087        -1.189317         0.539516
 H         1.533250        -1.634761        -1.463540
 H         2.642196        -0.333442        -1.914075
 H         4.389681        -2.594796         0.842992
 H         4.641921         0.214274         1.069581
 H         1.945356         2.143382         0.507596
 H         1.561114         1.955490        -1.202908
 H         2.475976        -0.622309         2.192457
