19
Iteration:  2615charge 0 multiplicity 1
 C         0.104871        -0.058223         0.434967
 C         1.539872         0.048502        -0.023511
 C         2.125684        -1.106065        -1.046748
 C         3.199512        -1.335177        -0.031856
 O         3.827412        -2.603180         0.134905
 C         3.788117         0.001410         0.366168
 O         3.457223         1.184561        -0.450890
 C         2.049605         1.439309        -0.421594
 C         2.546056        -0.485426         1.072612
 H        -0.129257         0.760895         1.286862
 H        -0.613424         0.076291        -0.319766
 H        -0.021303        -1.027375         0.921190
 H         1.545152        -2.120847        -1.168181
 H         2.293829        -0.609555        -1.976705
 H         4.428484        -2.743900         0.874463
 H         4.755580         0.100777         0.805793
 H         1.961638         2.165520         0.491258
 H         1.571678         1.791351        -1.323420
 H         2.539299        -0.555694         2.209397
