19
Iteration:   737charge 0 multiplicity 1
 C         0.009610         0.007532         0.268629
 C         1.515250        -0.033721         0.017678
 C         2.054814        -1.154366        -0.984126
 C         3.253009        -1.281629        -0.012016
 O         3.761456        -2.598785         0.014102
 C         3.803817         0.052797         0.409197
 O         3.580512         1.234885        -0.315238
 C         2.179343         1.330663        -0.383199
 C         2.522241        -0.435824         1.071924
 H        -0.242608         0.529663         1.131163
 H        -0.674941         0.184704        -0.601076
 H        -0.190723        -0.977089         0.740830
 H         1.426706        -2.040399        -0.993069
 H         2.279288        -0.813702        -2.015188
 H         4.153575        -2.741000         0.880378
 H         4.735517        -0.038319         1.007161
 H         1.842332         2.073174         0.278833
 H         1.942699         1.649046        -1.470771
 H         2.336030        -0.632236         2.153543
