19
Iteration:   127charge 0 multiplicity 1
 C         0.072288         0.030145         0.243668
 C         1.542636         0.044998         0.076597
 C         2.195410        -0.989794        -1.010540
 C         3.202610        -1.368140        -0.001247
 O         3.833581        -2.664381         0.233217
 C         3.757987        -0.037348         0.420321
 O         3.450661         1.155365        -0.507525
 C         2.037096         1.436763        -0.286482
 C         2.569286        -0.545692         1.078354
 H        -0.328818         0.710765         1.115139
 H        -0.380701         0.423189        -0.728984
 H        -0.362849        -0.967091         0.419792
 H         1.440627        -1.805557        -1.341337
 H         2.626228        -0.408118        -1.864077
 H         4.365682        -2.751514        -0.531369
 H         4.693395         0.086722         0.819325
 H         1.810516         2.244885         0.488610
 H         1.754088         1.689386        -1.394214
 H         2.438566        -0.743912         2.123202
