19
Iteration:  1090charge 0 multiplicity 1
 C         0.057698        -0.077529         0.285358
 C         1.534410         0.060520         0.005339
 C         2.188428        -0.947613        -1.119313
 C         3.164742        -1.346842         0.012656
 O         3.814185        -2.599250         0.226265
 C         3.758005        -0.056987         0.415154
 O         3.521121         1.127054        -0.438448
 C         2.085730         1.449059        -0.264755
 C         2.534761        -0.499922         1.076794
 H        -0.342367         0.569994         0.995108
 H        -0.565726         0.206395        -0.645887
 H        -0.124015        -1.157489         0.536278
 H         1.478921        -1.718114        -1.336675
 H         2.556712        -0.383698        -1.999714
 H         3.886738        -3.063991        -0.639913
 H         4.678814         0.003519         0.995326
 H         2.069392         2.142236         0.558158
 H         1.748104         1.863209        -1.227313
 H         2.497572        -0.684003         2.188652
