19
Iteration:   706
 C         0.045186         0.076248         0.231046
 C         1.543728         0.017917         0.053098
 C         2.203901        -1.008129        -1.004164
 C         3.211035        -1.445049         0.049744
 O         3.810452        -2.678839         0.073884
 C         3.752739         0.020369         0.384217
 O         3.422867         1.158103        -0.449942
 C         2.074447         1.424879        -0.308493
 C         2.551606        -0.524134         1.140111
 H         0.024989         0.684225         1.070263
 H        -0.485566         0.470372        -0.671733
 H        -0.271229        -0.922502         0.475435
 H         1.511024        -1.678523        -1.347238
 H         2.700233        -0.579317        -1.895728
 H         4.581405        -2.657087         0.725605
 H         4.784014         0.074273         0.861475
 H         1.845701         2.285746         0.350945
 H         1.642813         1.697167        -1.380362
 H         2.468160        -0.604332         2.235955
