19
Iteration:  2603charge 0 multiplicity 1
 C         0.087878         0.074931         0.408309
 C         1.517287        -0.057570         0.060575
 C         2.051077        -1.077902        -0.999830
 C         3.239887        -1.330171        -0.022060
 O         3.905378        -2.600820         0.079507
 C         3.742960         0.057749         0.359794
 O         3.490565         1.147026        -0.462587
 C         2.058894         1.333554        -0.375505
 C         2.548617        -0.502762         1.080375
 H        -0.126936         0.939622         1.169119
 H        -0.442733         0.269861        -0.520257
 H        -0.325428        -0.843770         0.780052
 H         1.399917        -2.016115        -1.047283
 H         2.398482        -0.860443        -1.994680
 H         4.690322        -2.286474         0.634609
 H         4.624956         0.118670         0.904502
 H         1.695388         2.200283         0.312568
 H         1.785007         1.661288        -1.390764
 H         2.142259        -0.709627         2.092193
