19
Iteration:  4781
 C        -0.114180        -0.060283         0.322111
 C         1.450521         0.034860         0.053870
 C         2.054809        -1.014677        -0.981200
 C         3.263295        -1.324005        -0.029245
 O         3.947772        -2.495838         0.000216
 C         3.825058         0.015561         0.462642
 O         3.548754         1.099067        -0.455360
 C         2.151736         1.365468        -0.366669
 C         2.530307        -0.514409         1.164443
 H        -0.374882         0.689934         1.015547
 H        -0.622540         0.210880        -0.596561
 H        -0.210289        -1.042776         0.725406
 H         1.361086        -1.911399        -1.155634
 H         2.355296        -0.619935        -1.998835
 H         3.635216        -2.879506         0.822374
 H         4.848165        -0.103614         0.805785
 H         2.079415         2.177648         0.343431
 H         1.779258         1.584231        -1.432417
 H         2.407435        -0.593168         2.192913
