19
Iteration:  4360charge 0 multiplicity 1
 C        -0.023737        -0.054273         0.384043
 C         1.485182        -0.034274         0.109192
 C         1.929346        -1.080194        -0.944993
 C         3.241845        -1.272379        -0.081075
 O         3.839407        -2.537711         0.108796
 C         3.864225         0.023838         0.331390
 O         3.553933         1.179328        -0.445296
 C         2.159285         1.347247        -0.432847
 C         2.603480        -0.524238         1.077280
 H        -0.305477         0.830120         1.046579
 H        -0.552296         0.113997        -0.497094
 H        -0.248612        -1.011055         0.702800
 H         1.414267        -1.964540        -0.854978
 H         1.875246        -0.762102        -2.035552
 H         4.585577        -2.332668         0.756576
 H         4.825160         0.024685         0.804393
 H         1.902102         2.121523         0.352255
 H         1.665245         1.667364        -1.464044
 H         2.566148        -0.631024         2.207984
