19
Iteration:   344
 C         0.120844        -0.120672         0.341354
 C         1.535931        -0.033679        -0.102252
 C         2.131779        -1.018132        -1.078778
 C         3.114050        -1.385322        -0.024427
 O         3.767169        -2.618944         0.239403
 C         3.754942         0.036770         0.366948
 O         3.592419         1.253076        -0.319931
 C         2.108673         1.402137        -0.339939
 C         2.517735        -0.424373         1.027334
 H        -0.009258         0.563665         1.111665
 H        -0.668858         0.033228        -0.410642
 H        -0.101015        -1.052494         0.951579
 H         1.402957        -1.863268        -1.345831
 H         2.593851        -0.704642        -1.990122
 H         4.004386        -2.851380        -0.728738
 H         4.721672        -0.069749         0.977124
 H         1.753328         2.074050         0.523708
 H         1.916306         1.921489        -1.236011
 H         2.359830        -0.483550         2.114859
