19
Iteration:  1071
 C         0.119757        -0.165545         0.282356
 C         1.569340         0.103881        -0.086328
 C         1.986961        -1.012885        -1.075604
 C         3.154367        -1.368821        -0.090173
 O         3.853491        -2.560444         0.283520
 C         3.763603        -0.028097         0.430340
 O         3.574185         1.197862        -0.363731
 C         2.194479         1.524203        -0.236387
 C         2.450018        -0.526779         0.974376
 H        -0.125111         0.511500         1.112877
 H        -0.520548        -0.074781        -0.491537
 H         0.070834        -1.247163         0.605945
 H         1.115875        -1.797164        -1.072738
 H         2.390237        -0.888651        -1.996106
 H         3.899279        -3.230101        -0.482619
 H         4.774100        -0.094679         0.810041
 H         1.914333         2.092011         0.694237
 H         1.901586         2.117090        -1.225252
 H         2.013169        -0.697789         1.908305
