19
Iteration:   341charge 0 multiplicity 1
 C         0.094925        -0.097250         0.364463
 C         1.509699        -0.033750        -0.125882
 C         2.166188        -1.036638        -1.066832
 C         3.131961        -1.390467        -0.015873
 O         3.751149        -2.632068         0.216342
 C         3.775128         0.033249         0.374867
 O         3.596640         1.258691        -0.320085
 C         2.108488         1.408579        -0.355305
 C         2.524272        -0.416919         1.030848
 H        -0.079770         0.572970         1.181625
 H        -0.609861        -0.012864        -0.404432
 H        -0.062244        -1.081716         0.994221
 H         1.431236        -1.830155        -1.402113
 H         2.689555        -0.637037        -1.957843
 H         4.018199        -2.841962        -0.665466
 H         4.672740        -0.026109         0.969237
 H         1.675961         2.020382         0.554004
 H         1.807105         1.858124        -1.263920
 H         2.299350        -0.455129         2.139558
