19
Iteration:  4424
 C         0.023575        -0.112809         0.541207
 C         1.464397        -0.013685         0.020905
 C         2.093194        -1.051617        -0.999338
 C         3.176510        -1.247857         0.005160
 O         3.796450        -2.523940         0.032733
 C         3.811017         0.017841         0.383624
 O         3.582595         1.124325        -0.531935
 C         2.133300         1.368993        -0.470397
 C         2.523896        -0.474101         1.113221
 H        -0.163987         0.599203         1.476823
 H        -0.625028         0.118193        -0.248380
 H        -0.309083        -1.047756         0.811845
 H         1.566202        -1.917786        -0.969182
 H         2.416897        -0.773703        -2.036970
 H         4.376595        -2.611758         0.870291
 H         4.708333         0.019865         0.978638
 H         2.076703         2.153442         0.158211
 H         1.880681         1.806675        -1.489521
 H         2.428973        -0.601259         2.245787
