19
Iteration:  1831
 C         0.035813        -0.116875         0.285407
 C         1.523741         0.006511        -0.017942
 C         2.076051        -1.091201        -0.918036
 C         3.223808        -1.307737         0.037355
 O         3.790575        -2.555312         0.038170
 C         3.779541         0.017315         0.350238
 O         3.535117         1.143998        -0.479888
 C         2.128215         1.415863        -0.299444
 C         2.556789        -0.386964         1.144364
 H        -0.379611         0.363898         1.113900
 H        -0.406984         0.304540        -0.717564
 H        -0.335838        -1.141240         0.289914
 H         1.416328        -1.917950        -0.908311
 H         2.344722        -0.855865        -2.011047
 H         4.415278        -2.586255         0.842701
 H         4.798710         0.066091         0.919342
 H         2.022031         2.010960         0.600066
 H         1.816354         1.813061        -1.298641
 H         2.343558        -0.723942         2.202957
