19
Iteration:   900charge 0 multiplicity 1
 C         0.120289        -0.076769         0.362362
 C         1.564575         0.014566        -0.071930
 C         2.203962        -1.000313        -1.056535
 C         3.274030        -1.268976        -0.070155
 O         3.578497        -2.642602         0.137924
 C         3.814312         0.079144         0.563244
 O         3.509473         1.153866        -0.367349
 C         2.064207         1.434070        -0.395940
 C         2.571214        -0.569562         1.034036
 H        -0.165617         0.692983         1.152635
 H        -0.547519        -0.008083        -0.574548
 H         0.038701        -0.990727         0.985139
 H         1.539377        -1.841098        -1.051015
 H         2.462345        -0.714992        -2.133607
 H         4.393716        -2.822830        -0.356140
 H         4.711926         0.086512         1.201867
 H         1.888943         2.282641         0.399290
 H         1.695822         1.742411        -1.396348
 H         2.350961        -0.761264         2.020367
