19
Iteration:   631charge 0 multiplicity 1
 C        -0.034615         0.152700         0.319507
 C         1.499071        -0.019708        -0.016142
 C         2.047803        -1.116492        -1.026408
 C         3.195172        -1.346685        -0.027923
 O         3.924772        -2.629610         0.096478
 C         3.764830         0.022909         0.416649
 O         3.526839         1.254936        -0.176720
 C         2.164592         1.265004        -0.498960
 C         2.524630        -0.507322         1.128963
 H        -0.020078         1.031164         0.936932
 H        -0.685723         0.354764        -0.578240
 H        -0.298226        -0.696617         0.794118
 H         1.473915        -1.948335        -1.250871
 H         2.395272        -0.659546        -1.995804
 H         4.088030        -2.910011        -0.796239
 H         4.733951        -0.211437         0.946471
 H         1.586975         2.119322        -0.060448
 H         2.165467         1.393243        -1.512399
 H         2.532293        -0.690056         2.223013
