19
Iteration:  1985
 C        -0.056739         0.165841         0.284203
 C         1.445370         0.004367        -0.035925
 C         1.931159        -1.304937        -0.816412
 C         3.222602        -1.350278        -0.030553
 O         4.067533        -2.448946        -0.035840
 C         3.733810        -0.028256         0.443387
 O         3.623689         1.170367        -0.317719
 C         2.144124         1.310996        -0.398450
 C         2.432883        -0.517069         1.111324
 H        -0.167162         0.819628         1.078183
 H        -0.595660         0.633826        -0.627957
 H        -0.414745        -0.827803         0.573677
 H         1.352877        -2.172103        -0.656779
 H         2.164889        -1.152806        -1.968069
 H         4.875581        -2.113434        -0.387737
 H         4.605828        -0.149501         0.975947
 H         1.746081         2.058751         0.295321
 H         2.056337         1.731226        -1.522815
 H         2.217808        -0.548003         2.164562
