19
Iteration:  4392
 C         0.142175        -0.098261         0.375430
 C         1.572121        -0.009455         0.008170
 C         2.066296        -1.120310        -0.970163
 C         3.224249        -1.356591         0.012552
 O         3.739008        -2.717250         0.063531
 C         3.816248         0.052297         0.327597
 O         3.418155         1.256013        -0.451377
 C         2.031988         1.445377        -0.407225
 C         2.672146        -0.390418         1.141384
 H        -0.128976         0.642973         1.291924
 H        -0.391040         0.258265        -0.437838
 H        -0.144732        -1.019578         0.698164
 H         1.444690        -1.908844        -0.929376
 H         2.318051        -0.921928        -2.053680
 H         4.273536        -2.690635         0.820253
 H         4.814259         0.007382         0.698060
 H         1.883085         2.169438         0.383885
 H         1.682135         1.951079        -1.448332
 H         2.560383        -0.192362         2.277592
