19
Iteration:   846
 C         0.057915         0.039263         0.214279
 C         1.540860         0.004101         0.009877
 C         2.031937        -1.068787        -1.012393
 C         3.094900        -1.323520        -0.024698
 O         3.923713        -2.505480         0.196268
 C         3.776693        -0.060009         0.381592
 O         3.504979         1.116997        -0.356251
 C         2.182648         1.395607        -0.270625
 C         2.524762        -0.502664         1.094194
 H        -0.268624         0.444615         1.173259
 H        -0.477899         0.492355        -0.692943
 H        -0.329129        -1.011560         0.133043
 H         1.262880        -1.792531        -1.035598
 H         2.319908        -0.764969        -2.079175
 H         4.352028        -2.650226        -0.643079
 H         4.808959        -0.274080         0.741146
 H         1.931361         2.213407         0.469942
 H         1.847683         1.764806        -1.295086
 H         2.313770        -0.820350         2.050399
