19
Iteration:  2315charge 0 multiplicity 1
 C         0.067282         0.080781         0.195046
 C         1.519992        -0.020512         0.050157
 C         2.016747        -1.193097        -0.868411
 C         3.251378        -1.305521         0.018468
 O         3.894396        -2.635047        -0.076838
 C         3.801299         0.076615         0.499629
 O         3.513956         1.289574        -0.267857
 C         2.076006         1.272603        -0.466523
 C         2.485433        -0.463839         1.130401
 H        -0.188327         0.648235         1.035290
 H        -0.459752         0.579230        -0.750865
 H        -0.354328        -0.963467         0.443779
 H         1.434329        -2.042839        -0.583425
 H         2.122266        -1.109630        -2.049046
 H         4.833320        -2.605742        -0.183692
 H         4.632988         0.205288         1.077320
 H         1.703502         2.059620         0.183874
 H         2.020477         1.367665        -1.559513
 H         2.238963        -0.779167         2.155668
