19
Iteration:   709charge 0 multiplicity 1
 C         0.086152         0.065797         0.194771
 C         1.590417         0.012697         0.063868
 C         2.208140        -1.010913        -1.006351
 C         3.191372        -1.440326         0.068149
 O         3.801752        -2.684924         0.059048
 C         3.763550         0.032224         0.409932
 O         3.389780         1.168726        -0.448326
 C         2.059861         1.434921        -0.341452
 C         2.564004        -0.549296         1.136548
 H         0.061970         0.644155         1.214172
 H        -0.459558         0.480364        -0.678699
 H        -0.367187        -0.804566         0.641680
 H         1.361651        -1.662242        -1.263607
 H         2.697556        -0.607573        -1.915809
 H         4.527080        -2.629583         0.764863
 H         4.762088         0.003739         0.872233
 H         1.717144         2.307496         0.386948
 H         1.736199         1.699366        -1.313379
 H         2.464452        -0.530651         2.165479
