19
Iteration:  1622charge 0 multiplicity 1
 C         0.046604        -0.122574         0.346851
 C         1.515334         0.070658        -0.023956
 C         1.985085        -1.053491        -0.991925
 C         3.214571        -1.326981        -0.074840
 O         3.817346        -2.564114         0.169000
 C         3.772282        -0.009673         0.431081
 O         3.616291         1.251987        -0.315082
 C         2.140738         1.391871        -0.436757
 C         2.516145        -0.510626         1.022174
 H        -0.150256         0.482711         1.286257
 H        -0.749190        -0.023513        -0.481281
 H         0.001746        -1.123141         0.678058
 H         1.270143        -1.871095        -0.898284
 H         2.217923        -0.926470        -2.045674
 H         4.586355        -2.658796        -0.392017
 H         4.630341         0.024885         0.985373
 H         1.878828         2.213808         0.296639
 H         2.030115         1.597725        -1.445258
 H         2.192301        -0.792741         2.042570
