19
Iteration:  1079charge 0 multiplicity 1
 C         0.123288        -0.127076         0.274896
 C         1.558122         0.124410        -0.025678
 C         2.075311        -0.979425        -1.111289
 C         3.149252        -1.399493        -0.060946
 O         3.853180        -2.587813         0.274895
 C         3.814427        -0.058389         0.441192
 O         3.541364         1.170336        -0.426408
 C         2.130178         1.528800        -0.247165
 C         2.457210        -0.521398         1.041828
 H        -0.136303         0.421504         1.110392
 H        -0.569464        -0.049383        -0.676577
 H        -0.061445        -1.161958         0.665580
 H         1.350295        -1.747970        -1.248414
 H         2.311094        -0.674374        -2.174256
 H         3.862944        -3.173965        -0.570528
 H         4.793214        -0.124769         0.949036
 H         1.812872         2.165060         0.589499
 H         1.743564         2.094894        -1.130194
 H         2.027550        -0.681575         2.118934
