19
Iteration:  1208charge 0 multiplicity 1
 C         0.041395         0.176265         0.326655
 C         1.528322        -0.028906         0.003540
 C         2.085461        -1.165184        -0.972998
 C         3.260594        -1.381205         0.028335
 O         3.893289        -2.618760        -0.054442
 C         3.733924         0.083342         0.590842
 O         3.489378         1.164835        -0.284064
 C         2.127487         1.324352        -0.466550
 C         2.496543        -0.515599         1.073344
 H        -0.145752         1.022998         1.051503
 H        -0.767850         0.350164        -0.539212
 H        -0.408836        -0.754759         0.694512
 H         1.488091        -2.018687        -1.078561
 H         2.515991        -0.712248        -1.992847
 H         4.643043        -2.558521        -0.611406
 H         4.623991         0.263307         1.156853
 H         1.737399         2.268061         0.122676
 H         1.878293         1.279543        -1.507534
 H         2.164365        -0.607719         2.084395
