19
Iteration:  1180
 C         0.013091         0.206143         0.405166
 C         1.471705        -0.054556        -0.011291
 C         1.951606        -1.162042        -1.020244
 C         3.191254        -1.321137        -0.069886
 O         3.992530        -2.408846         0.025502
 C         3.736479        -0.086749         0.497137
 O         3.572064         1.144991        -0.212777
 C         2.218647         1.317348        -0.529362
 C         2.415028        -0.619282         1.063440
 H        -0.119776         1.066393         1.010912
 H        -0.610626         0.393794        -0.395781
 H        -0.400122        -0.696230         0.979362
 H         1.453411        -2.201671        -1.037199
 H         2.134097        -0.871719        -1.993192
 H         4.901526        -2.151258         0.063244
 H         4.732882        -0.132760         0.962019
 H         1.842015         2.190113        -0.081241
 H         2.092356         1.255589        -1.645592
 H         2.102999        -0.794999         2.074982
