19
Iteration:  3826
 C         0.133718        -0.126077         0.406208
 C         1.570666        -0.026777        -0.000237
 C         2.121652        -1.072758        -1.048988
 C         3.214817        -1.329833        -0.013251
 O         3.747521        -2.683891         0.180870
 C         3.836737         0.108617         0.281057
 O         3.470939         1.258269        -0.483697
 C         2.101888         1.429090        -0.269131
 C         2.584333        -0.400345         0.994229
 H        -0.128922         0.649056         1.057409
 H        -0.650749        -0.087929        -0.434896
 H        -0.021641        -1.117366         0.844493
 H         1.400270        -1.951411        -1.117690
 H         2.361470        -0.837433        -2.002246
 H         3.399328        -3.177319         0.887039
 H         4.731847         0.180267         0.863182
 H         1.808622         2.037528         0.640016
 H         1.613246         1.832788        -1.205462
 H         2.365115        -0.504068         2.061989
