19
Iteration:   287charge 0 multiplicity 1
 C         0.014391         0.040391         0.271487
 C         1.486851        -0.004498         0.059888
 C         2.005530        -1.088671        -1.026078
 C         3.125225        -1.302002        -0.057536
 O         3.867572        -2.534849         0.105741
 C         3.831973        -0.056703         0.440038
 O         3.573563         1.149532        -0.355684
 C         2.191209         1.387828        -0.372277
 C         2.515209        -0.508361         1.108074
 H        -0.294916         0.697510         1.019724
 H        -0.477586         0.269161        -0.626312
 H        -0.238884        -1.099285         0.488718
 H         1.372527        -2.031167        -0.977970
 H         2.205939        -0.817199        -2.069123
 H         4.739912        -2.262883        -0.085600
 H         4.803211        -0.119947         0.865254
 H         1.785594         2.124284         0.389924
 H         1.879385         1.619901        -1.302224
 H         2.256839        -0.638413         2.173690
