19
Iteration:  2097
 C         0.055596        -0.095747         0.334168
 C         1.521970         0.034578         0.011316
 C         2.078986        -1.025158        -0.983063
 C         3.159446        -1.327704        -0.054874
 O         3.817075        -2.524326         0.214163
 C         3.780026         0.022406         0.362439
 O         3.533277         1.175896        -0.353935
 C         2.104052         1.361524        -0.398068
 C         2.601623        -0.513926         1.076825
 H        -0.361772         0.454156         1.143810
 H        -0.615984         0.090918        -0.507050
 H        -0.127139        -1.229672         0.507140
 H         1.221724        -1.699576        -1.116658
 H         2.356936        -0.623441        -2.001077
 H         4.390939        -2.714036        -0.612193
 H         4.862431        -0.069722         0.790272
 H         1.716054         2.142734         0.140372
 H         1.919552         1.670280        -1.474787
 H         2.545634        -0.722074         2.149431
