19
Iteration:  3328charge 0 multiplicity 1
 C        -0.001075         0.204726         0.326065
 C         1.506303         0.000763        -0.019087
 C         1.921622        -1.310145        -0.809649
 C         3.200530        -1.436436        -0.014131
 O         4.182283        -2.334564        -0.034734
 C         3.717994        -0.058099         0.387130
 O         3.548133         1.139296        -0.335724
 C         2.161313         1.320946        -0.495045
 C         2.416870        -0.452309         1.144826
 H        -0.119658         0.922153         1.291281
 H        -0.548691         0.558218        -0.495875
 H        -0.372299        -0.765030         0.777904
 H         1.094097        -2.182361        -0.602026
 H         1.959147        -1.082057        -1.933107
 H         3.796842        -3.178590        -0.189597
 H         4.703693        -0.194366         0.780160
 H         1.675438         2.120111         0.222388
 H         1.871184         1.436363        -1.476308
 H         2.321686        -0.543400         2.264183
