19
Iteration:  2441charge 0 multiplicity 1
 C         0.028511        -0.178797         0.240649
 C         1.533708         0.053027         0.080433
 C         2.103628        -0.973468        -0.985749
 C         3.236216        -1.303877         0.045666
 O         3.751085        -2.581588         0.153815
 C         3.815766         0.033868         0.377066
 O         3.539943         1.091945        -0.553447
 C         2.057374         1.424386        -0.291616
 C         2.573898        -0.449616         1.116759
 H        -0.594126         0.248692         1.171137
 H        -0.415708         0.206758        -0.578470
 H        -0.222844        -1.230130         0.134208
 H         1.378408        -1.857437        -0.926927
 H         2.324391        -0.716859        -1.974050
 H         4.733362        -2.617976         0.081260
 H         4.778769         0.118121         0.797432
 H         2.209584         2.141619         0.507193
 H         1.565403         2.021292        -1.039658
 H         2.527945        -0.555041         2.178063
