19
Iteration:  2243charge 0 multiplicity 1
 C         0.083690        -0.096588         0.395641
 C         1.526482         0.013439        -0.113667
 C         2.162802        -0.997147        -1.207499
 C         3.196906        -1.328419        -0.077027
 O         3.811762        -2.555120         0.361598
 C         3.755112        -0.015793         0.355498
 O         3.514314         1.204061        -0.382674
 C         2.094885         1.422465        -0.243793
 C         2.516365        -0.558462         0.979849
 H        -0.252221         0.671792         1.221565
 H        -0.603275         0.012700        -0.358958
 H        -0.064100        -1.048409         0.826135
 H         1.387034        -1.843640        -1.411531
 H         2.524441        -0.564626        -2.095435
 H         4.278364        -2.851279        -0.398176
 H         4.692664         0.105372         0.935644
 H         1.885997         2.024777         0.636336
 H         1.720541         1.917720        -1.167502
 H         2.312618        -0.886742         2.042166
