19
Iteration:  4510charge 0 multiplicity 1
 C         0.006219         0.067712         0.312682
 C         1.460105        -0.023684         0.137607
 C         1.944104        -1.141179        -0.859840
 C         3.232924        -1.285855        -0.093566
 O         3.941810        -2.454047         0.091650
 C         3.802025         0.041033         0.378126
 O         3.550416         1.165529        -0.417383
 C         2.115944         1.299857        -0.441713
 C         2.607222        -0.586955         1.130706
 H        -0.251600         0.912233         0.993924
 H        -0.406746         0.327495        -0.677274
 H        -0.320222        -0.807169         0.782440
 H         1.361896        -2.027609        -0.826173
 H         2.096535        -0.883353        -1.966613
 H         4.066776        -2.929685        -0.765776
 H         4.767027         0.035668         0.869456
 H         1.684152         2.205553         0.196519
 H         1.788771         1.357226        -1.446066
 H         2.456454        -0.828411         2.245598
