19
Iteration:  4277
 C         0.041146         0.090625         0.310729
 C         1.493458        -0.025422         0.093960
 C         1.897745        -1.160083        -0.860159
 C         3.151775        -1.328654        -0.121078
 O         3.980798        -2.502986         0.131538
 C         3.769972         0.000423         0.363370
 O         3.550393         1.251289        -0.318770
 C         2.095044         1.342765        -0.509572
 C         2.637496        -0.606873         1.080684
 H        -0.222651         0.700201         1.161441
 H        -0.518436         0.562466        -0.662490
 H        -0.444854        -0.959465         0.686546
 H         1.056600        -2.028286        -0.655849
 H         2.008680        -0.868726        -1.869171
 H         4.703477        -2.618310        -0.442898
 H         4.776744        -0.011313         0.847460
 H         1.724661         2.225170        -0.009038
 H         1.776301         1.344406        -1.564963
 H         2.740018        -0.875776         2.172007
