19
Iteration:  3685
 C         0.081586         0.003402         0.387535
 C         1.521852         0.010373         0.021391
 C         1.910802        -1.167730        -0.998187
 C         3.174867        -1.309948        -0.046933
 O         4.022706        -2.504394         0.084346
 C         3.755278         0.013924         0.329610
 O         3.559531         1.237762        -0.296390
 C         2.145995         1.335638        -0.453124
 C         2.504967        -0.492563         1.066060
 H        -0.156287         0.816058         0.956851
 H        -0.753650         0.022906        -0.451782
 H        -0.140581        -0.991327         0.948819
 H         1.069707        -1.947670        -0.952214
 H         2.128524        -1.117613        -2.121507
 H         3.550070        -3.119818         0.636108
 H         4.824217        -0.005949         0.815577
 H         1.801839         2.236612         0.146539
 H         1.967764         1.601185        -1.422847
 H         2.394862        -0.743978         2.116036
