19
Iteration:  2762
 C        -0.020414         0.204527         0.301716
 C         1.495560         0.031942         0.125463
 C         1.937801        -1.309561        -0.781527
 C         3.196369        -1.406627        -0.062958
 O         4.112650        -2.358997        -0.160701
 C         3.716340        -0.033332         0.421976
 O         3.527112         1.231177        -0.212827
 C         2.148005         1.199525        -0.606996
 C         2.574971        -0.473285         1.201765
 H        -0.259168         0.905976         1.079985
 H        -0.582987         0.581839        -0.673266
 H        -0.426286        -0.774624         0.690446
 H         1.248778        -2.120216        -0.573372
 H         1.910044        -1.185659        -1.973017
 H         3.849159        -3.243712         0.221126
 H         4.714370        -0.200807         0.735523
 H         1.650544         2.224450        -0.296885
 H         1.991447         1.014125        -1.722339
 H         2.234111        -0.510612         2.254218
