19
Iteration:  4824charge 0 multiplicity 1
 C         0.021933         0.109455         0.352170
 C         1.575853        -0.000780        -0.069430
 C         1.982175        -1.237855        -0.973175
 C         3.156608        -1.401951        -0.054548
 O         4.027716        -2.494486         0.039709
 C         3.758144         0.038574         0.370550
 O         3.542240         1.232945        -0.219508
 C         2.035011         1.398169        -0.455654
 C         2.575235        -0.560503         1.100955
 H        -0.115965         0.970338         0.936427
 H        -0.557613         0.294863        -0.549647
 H        -0.231598        -0.769677         1.041887
 H         1.291002        -2.047569        -0.596584
 H         2.177954        -1.049778        -2.026357
 H         3.481156        -3.342845         0.226543
 H         4.746830        -0.078570         0.736867
 H         1.574916         2.137889         0.226301
 H         2.032938         1.698034        -1.512865
 H         2.367241        -0.571260         2.099992
