19
Iteration:  4457
 C         0.079322         0.028885         0.443807
 C         1.490900         0.038556         0.037446
 C         1.945808        -1.089839        -0.926745
 C         3.155509        -1.370312        -0.006394
 O         3.999008        -2.546421         0.024373
 C         3.757881        -0.053416         0.346685
 O         3.550211         1.154927        -0.443178
 C         2.084004         1.359385        -0.441334
 C         2.501070        -0.496104         1.115521
 H        -0.221911         0.938442         1.088821
 H        -0.385554         0.332617        -0.455565
 H        -0.238146        -0.884450         0.740181
 H         1.300314        -1.848351        -0.764425
 H         2.134478        -0.981980        -2.037937
 H         4.890632        -2.229462         0.372138
 H         4.680723         0.068769         0.918635
 H         1.741926         2.107521         0.228384
 H         1.841373         1.578510        -1.520601
 H         2.430188        -0.635932         2.254366
