19
Iteration:  4893charge 0 multiplicity 1
 C         0.017093        -0.006130         0.331534
 C         1.473736        -0.000606         0.009362
 C         2.034163        -1.148765        -0.918912
 C         3.182231        -1.386697         0.016590
 O         4.060388        -2.497135        -0.058852
 C         3.672363        -0.022388         0.451997
 O         3.613521         1.121347        -0.427910
 C         2.124210         1.397779        -0.389644
 C         2.455534        -0.360250         1.141419
 H        -0.226126         0.535993         1.283062
 H        -0.487312         0.508897        -0.415160
 H        -0.240941        -0.951048         0.383708
 H         1.404547        -1.968361        -0.722749
 H         2.297212        -0.907527        -1.975709
 H         3.571741        -3.364940         0.202544
 H         4.701751        -0.057149         0.930737
 H         2.089830         2.039920         0.445600
 H         1.649724         1.814136        -1.387292
 H         2.091678        -0.118308         2.283800
