19
Iteration:  2567charge 0 multiplicity 1
 C        -0.051576         0.187741         0.299011
 C         1.493145         0.003809         0.082877
 C         1.931946        -1.296561        -0.774241
 C         3.165176        -1.370911        -0.000366
 O         4.115193        -2.422562        -0.088610
 C         3.727047         0.008658         0.444817
 O         3.567125         1.101310        -0.356100
 C         2.127207         1.284480        -0.458624
 C         2.492142        -0.473859         1.166711
 H        -0.365112         0.893400         0.989912
 H        -0.330698         0.703337        -0.737759
 H        -0.672002        -0.690305         0.457161
 H         1.261971        -2.051288        -0.535212
 H         1.992169        -1.166886        -1.874984
 H         4.751739        -2.266715        -0.866719
 H         4.761245        -0.007418         0.865330
 H         1.829544         2.169409         0.122461
 H         2.079573         1.357740        -1.619488
 H         2.294881        -0.731147         2.156156
