19
Iteration:  4286
 C         0.008242         0.124070         0.370423
 C         1.509604         0.013054         0.067881
 C         1.923078        -1.106774        -0.852720
 C         3.270216        -1.330403        -0.076255
 O         3.958305        -2.475252         0.074767
 C         3.745955         0.028740         0.387895
 O         3.516439         1.157004        -0.340145
 C         2.096773         1.277446        -0.517638
 C         2.627582        -0.636440         1.103560
 H        -0.214024         0.885520         1.152091
 H        -0.433542         0.400606        -0.692673
 H        -0.543481        -0.905381         0.525603
 H         1.192257        -1.992195        -0.648823
 H         1.897099        -0.950327        -1.968963
 H         4.722088        -2.367873        -0.449116
 H         4.684489        -0.009373         0.894742
 H         1.642557         2.185982        -0.070426
 H         1.961852         1.373979        -1.546392
 H         2.457441        -0.772352         2.215431
