19
Iteration:  2238
 C         0.083195        -0.087657         0.407754
 C         1.546923        -0.005766        -0.086886
 C         2.188498        -1.023367        -1.145259
 C         3.179475        -1.343196        -0.072817
 O         3.782748        -2.569886         0.328929
 C         3.797444         0.007441         0.363618
 O         3.511229         1.213062        -0.340746
 C         2.060173         1.395045        -0.299277
 C         2.499624        -0.510837         0.942006
 H        -0.121769         0.628601         1.161296
 H        -0.685386         0.010882        -0.492910
 H        -0.113877        -1.128302         0.883799
 H         1.525621        -1.800342        -1.281665
 H         2.515311        -0.608080        -2.171199
 H         4.375764        -2.769108        -0.479922
 H         4.785191        -0.005760         0.815162
 H         1.819555         2.082760         0.604001
 H         1.779308         2.143197        -1.109077
 H         2.284411        -0.831361         1.913839
