19
Iteration:  3069
 C         0.099026        -0.078693         0.465073
 C         1.482556         0.026615        -0.035322
 C         2.077961        -1.085080        -1.097954
 C         3.224595        -1.332156        -0.144814
 O         3.903386        -2.501158         0.281779
 C         3.779597         0.020182         0.310721
 O         3.516769         1.144299        -0.375243
 C         2.066663         1.385642        -0.349568
 C         2.580637        -0.509150         0.978860
 H        -0.097257         0.754017         1.066430
 H        -0.727298         0.076171        -0.415977
 H        -0.115093        -0.908161         1.140957
 H         1.333043        -1.831597        -1.308174
 H         2.352360        -0.540529        -2.124731
 H         3.243115        -3.058203         0.683181
 H         4.801368         0.148621         0.691814
 H         1.880140         2.040300         0.544628
 H         1.708866         1.863101        -1.335333
 H         2.309838        -0.769409         1.983727
