19
Iteration:  3776
 C        -0.019708         0.027176         0.412651
 C         1.450293         0.020678         0.023819
 C         1.957377        -1.107247        -0.921383
 C         3.144789        -1.325974        -0.023689
 O         4.106423        -2.419745         0.048258
 C         3.749659        -0.034494         0.436456
 O         3.616646         1.102845        -0.408116
 C         2.127833         1.335685        -0.519177
 C         2.504560        -0.510250         1.127817
 H        -0.248781         0.777925         1.288760
 H        -0.585160         0.422613        -0.420137
 H        -0.493659        -0.999762         0.610393
 H         1.246030        -1.893929        -1.110586
 H         2.255666        -0.877074        -2.032582
 H         3.631306        -3.299349         0.105443
 H         4.685802        -0.103443         0.909254
 H         1.853684         2.112784         0.183574
 H         1.770797         1.661639        -1.479240
 H         2.486693        -0.401773         2.220624
