19
Iteration:  3244
 C         0.159581        -0.368304         0.422270
 C         1.544850         0.099470        -0.023282
 C         2.056705        -1.021040        -0.996884
 C         3.143859        -1.262030        -0.035063
 O         3.698795        -2.618290         0.209768
 C         3.837735         0.070697         0.301966
 O         3.576999         1.213096        -0.470095
 C         2.103710         1.435701        -0.357894
 C         2.588911        -0.359561         0.988174
 H        -0.251483         0.185783         1.203735
 H        -0.607327        -0.352349        -0.427283
 H         0.209062        -1.375008         0.704272
 H         1.433029        -1.849084        -0.931657
 H         2.260742        -0.742013        -1.985879
 H         3.381207        -3.034985         1.077141
 H         4.837887         0.051512         0.692293
 H         1.867341         2.088330         0.401393
 H         1.740462         1.949639        -1.333915
 H         2.628309        -0.377073         2.122069
