19
Iteration:  2212
 C         0.067628        -0.076640         0.317655
 C         1.572583        -0.018525        -0.028700
 C         2.065706        -1.137909        -1.010892
 C         3.219535        -1.301622        -0.026803
 O         3.740505        -2.647600         0.037427
 C         3.755988         0.086433         0.462255
 O         3.546824         1.307304        -0.292613
 C         2.119940         1.347669        -0.427757
 C         2.551410        -0.470666         1.130410
 H        -0.211447         0.549105         1.193638
 H        -0.613133         0.040031        -0.571604
 H        -0.084610        -1.088867         0.573600
 H         1.345479        -2.069709        -0.912933
 H         2.208925        -0.883153        -2.091618
 H         4.750336        -2.549861        -0.143699
 H         4.702178         0.245899         1.135830
 H         1.747514         2.231741         0.027767
 H         1.912629         1.617399        -1.425918
 H         2.542081        -0.597631         2.262725
