19
Iteration:  2028
 C         0.124368        -0.142832         0.350918
 C         1.603856         0.016622         0.036344
 C         2.143314        -0.906330        -1.062277
 C         3.234681        -1.351567        -0.052391
 O         3.719747        -2.574673         0.266573
 C         3.768949         0.044639         0.383377
 O         3.487950         1.175037        -0.452430
 C         2.058987         1.369030        -0.355616
 C         2.549987        -0.529043         1.060812
 H        -0.147643         0.625811         1.044849
 H        -0.699257        -0.038414        -0.509229
 H        -0.036377        -1.130630         0.781400
 H         1.445216        -1.658594        -1.267403
 H         2.489177        -0.492528        -2.049143
 H         4.447453        -2.831460        -0.348088
 H         4.706184         0.049567         0.802941
 H         1.882715         2.130960         0.332239
 H         1.505374         1.772928        -1.265357
 H         2.405933        -0.846058         2.080499
