19
Iteration:  2720
 C         0.027003         0.243432         0.404190
 C         1.497164        -0.032342         0.011817
 C         1.959903        -1.243311        -0.875338
 C         3.219705        -1.286447        -0.047401
 O         4.184203        -2.367746         0.009830
 C         3.762690        -0.060757         0.417205
 O         3.485155         1.071331        -0.473634
 C         2.088464         1.299438        -0.370992
 C         2.434056        -0.542640         1.124069
 H        -0.143301         1.031287         0.988137
 H        -0.522355         0.422583        -0.653855
 H        -0.466925        -0.658897         0.722381
 H         1.406196        -2.092118        -0.726744
 H         2.262148        -1.150559        -1.987621
 H         3.533306        -3.146289        -0.004461
 H         4.672087        -0.020308         0.956007
 H         1.828754         2.129597         0.294589
 H         1.778390         1.665276        -1.412994
 H         2.222683        -0.770042         2.236024
