19
Iteration:  2815
 C         0.107337        -0.060039         0.478555
 C         1.472165         0.038243        -0.040053
 C         2.074201        -1.139753        -1.052144
 C         3.216819        -1.317640        -0.014761
 O         3.916410        -2.509749         0.187677
 C         3.747060        -0.008612         0.341176
 O         3.496186         1.195566        -0.347514
 C         2.099073         1.375018        -0.487198
 C         2.573787        -0.468152         1.071015
 H         0.049287         0.852404         1.167988
 H        -0.640342         0.118618        -0.305116
 H        -0.180644        -1.034145         0.983976
 H         1.396072        -2.074286        -1.116537
 H         2.319463        -0.822772        -2.082666
 H         3.492269        -3.120746        -0.461404
 H         4.639874        -0.020917         0.934121
 H         1.798928         2.230863         0.178662
 H         1.806668         1.683928        -1.474414
 H         2.372895        -0.617195         2.134575
