19
Iteration:  4097
 C         0.022834         0.136710         0.446473
 C         1.475924         0.031048         0.038973
 C         1.984857        -1.230706        -0.907404
 C         3.210524        -1.339089         0.032476
 O         3.973521        -2.468031        -0.099638
 C         3.751139        -0.001385         0.464424
 O         3.549923         1.115491        -0.384768
 C         2.128766         1.262992        -0.561005
 C         2.472683        -0.459768         1.113401
 H         0.068184         0.744476         1.435366
 H        -0.759773         0.342010        -0.292541
 H        -0.322081        -0.756382         0.893018
 H         1.434207        -2.062467        -0.701461
 H         2.110465        -1.110299        -2.069491
 H         4.935270        -2.317766         0.158645
 H         4.563787         0.134951         1.281047
 H         1.865426         2.262195        -0.173049
 H         1.893136         1.324558        -1.591021
 H         2.410464        -0.527113         2.229459
