19
Iteration:  2408charge 0 multiplicity 1
 C        -0.016707         0.022631         0.295321
 C         1.545439        -0.038901         0.054079
 C         2.057575        -1.092119        -0.988517
 C         3.204245        -1.338931         0.021855
 O         3.948562        -2.572475         0.114795
 C         3.795108         0.080039         0.437289
 O         3.549057         1.204315        -0.363918
 C         2.024421         1.313687        -0.482742
 C         2.570503        -0.473103         1.139966
 H        -0.352705         0.811263         1.102786
 H        -0.372482         0.347629        -0.589609
 H        -0.458468        -0.921009         0.537285
 H         1.319746        -1.974267        -1.007237
 H         2.319515        -0.837684        -1.953363
 H         3.788002        -3.041508        -0.771745
 H         4.790615        -0.016311         0.898687
 H         1.799992         2.014688         0.324478
 H         1.735033         1.564227        -1.492542
 H         2.444715        -0.540788         2.174936
