19
Iteration:  4172
 C         0.091617        -0.069305         0.331292
 C         1.553785         0.037354         0.027552
 C         1.949782        -1.204335        -0.882682
 C         3.175119        -1.330972        -0.043247
 O         3.834424        -2.575213         0.097666
 C         3.756989         0.055132         0.344460
 O         3.541031         1.197840        -0.492930
 C         2.127536         1.416045        -0.301896
 C         2.596805        -0.476056         1.057782
 H        -0.247121         0.764673         1.123644
 H        -0.587045         0.060051        -0.497226
 H        -0.154115        -1.044183         0.688082
 H         1.203891        -1.936638        -0.797178
 H         2.060715        -0.965114        -2.037878
 H         4.756690        -2.353284         0.169108
 H         4.713292         0.026652         0.983718
 H         1.913559         2.251924         0.380719
 H         1.830964         1.797208        -1.309183
 H         2.615655        -0.507337         2.172227
