19
Iteration:  3184
 C         0.039088         0.169510         0.399866
 C         1.494369        -0.004963         0.034500
 C         2.054893        -1.209529        -0.956702
 C         3.244750        -1.383645         0.002100
 O         4.130052        -2.482184         0.045530
 C         3.719244        -0.029631         0.413774
 O         3.434925         1.137362        -0.440026
 C         2.070180         1.336008        -0.447548
 C         2.465184        -0.460062         1.130389
 H        -0.090159         1.080411         1.183411
 H        -0.448075         0.541297        -0.504284
 H        -0.519280        -0.733575         0.820944
 H         1.529680        -2.236910        -1.007507
 H         2.202021        -0.922075        -2.064103
 H         3.590679        -3.267466        -0.059607
 H         4.717925         0.011447         0.823813
 H         1.830823         2.108211         0.368267
 H         1.716838         1.676312        -1.380620
 H         2.521033        -0.559147         2.169716
