19
Iteration:  2290charge 0 multiplicity 1
 C        -0.022420        -0.043399         0.161604
 C         1.496504         0.015586         0.049040
 C         2.095668        -1.135739        -0.969464
 C         3.176449        -1.326816         0.007728
 O         3.889411        -2.522540         0.114054
 C         3.795558        -0.008381         0.437115
 O         3.536789         1.158072        -0.403539
 C         2.108886         1.421458        -0.297427
 C         2.524283        -0.486300         1.126073
 H        -0.302217         0.411219         1.102452
 H        -0.677864         0.435831        -0.672954
 H        -0.289534        -1.094173         0.382988
 H         1.410052        -1.989992        -1.022443
 H         2.485319        -0.795282        -2.031960
 H         4.483818        -2.585029        -0.681396
 H         4.849720         0.009681         0.911337
 H         1.982284         2.111061         0.527087
 H         1.829461         1.790982        -1.277190
 H         2.443997        -0.507036         2.180585
