19
Iteration:  3512charge 0 multiplicity 1
 C         0.071459         0.071177         0.365632
 C         1.514593        -0.026269        -0.003134
 C         1.938049        -1.281575        -0.907057
 C         3.162445        -1.296283        -0.042293
 O         4.029985        -2.448458         0.016424
 C         3.736965         0.052075         0.454494
 O         3.579029         1.206579        -0.320294
 C         2.122481         1.311046        -0.524817
 C         2.500526        -0.451736         1.086850
 H        -0.090953         0.891277         1.101810
 H        -0.591964         0.181461        -0.458204
 H        -0.177672        -0.801725         1.050241
 H         1.368081        -2.076423        -0.488750
 H         1.916946        -1.371393        -2.006558
 H         3.471425        -3.259494        -0.019298
 H         4.657510        -0.052293         0.958064
 H         1.924629         2.159588         0.089066
 H         2.072141         1.554354        -1.683258
 H         2.293141        -0.693149         2.116511
