19
Iteration:   288charge 0 multiplicity 1
 C         0.025055         0.041209         0.271631
 C         1.490259        -0.002628         0.065641
 C         2.003574        -1.079308        -1.028426
 C         3.138194        -1.299705        -0.059346
 O         3.855854        -2.536830         0.106808
 C         3.833822        -0.052322         0.448184
 O         3.568909         1.151251        -0.360606
 C         2.186878         1.379084        -0.377711
 C         2.511274        -0.514588         1.104585
 H        -0.293256         0.670914         1.031134
 H        -0.473204         0.256980        -0.640564
 H        -0.226189        -1.101393         0.520677
 H         1.372241        -2.046558        -0.997590
 H         2.201885        -0.783219        -2.041491
 H         4.743512        -2.259425        -0.084125
 H         4.826169        -0.113162         0.898491
 H         1.791697         2.100550         0.376913
 H         1.879226         1.620985        -1.323361
 H         2.247398        -0.644328         2.185715
