19
Iteration:  2373charge 0 multiplicity 1
 C         0.091204         0.132811         0.423338
 C         1.482089        -0.018275        -0.073242
 C         1.941612        -1.243097        -0.987563
 C         3.165096        -1.309414        -0.067910
 O         4.127375        -2.370882        -0.001902
 C         3.678378        -0.022516         0.499565
 O         3.546352         1.168156        -0.161795
 C         2.171833         1.314541        -0.632425
 C         2.440648        -0.593425         1.041202
 H         0.006737         1.164208         1.027703
 H        -0.605153         0.142773        -0.343020
 H        -0.216055        -0.648615         1.065536
 H         1.205200        -2.085111        -0.668631
 H         2.015987        -1.189584        -2.053898
 H         3.791465        -3.022958         0.690769
 H         4.653792        -0.069540         1.107866
 H         1.590867         2.142798        -0.132205
 H         2.132431         1.645449        -1.658088
 H         2.142347        -0.764873         2.100099
