19
Iteration:   382charge 0 multiplicity 1
 C        -0.110523        -0.046237         0.198423
 C         1.451389         0.050242         0.056229
 C         1.999701        -1.038320        -0.971916
 C         3.237484        -1.286970        -0.076330
 O         3.875076        -2.504048         0.226289
 C         3.813307        -0.027940         0.368714
 O         3.621607         1.127638        -0.358712
 C         2.176356         1.379865        -0.302183
 C         2.552298        -0.554346         1.021978
 H        -0.322246         0.637723         1.153892
 H        -0.585069         0.475051        -0.695441
 H        -0.479562        -1.064895         0.325391
 H         1.381295        -1.900632        -0.832646
 H         2.039213        -0.686050        -2.046736
 H         4.624135        -2.692967        -0.394779
 H         4.703787        -0.139076         0.925050
 H         2.010792         2.083359         0.478312
 H         1.853434         1.768158        -1.422948
 H         2.524830        -0.979107         2.053913
