19
Iteration:  2492charge 0 multiplicity 1
 C         0.128676        -0.012724         0.436762
 C         1.573129        -0.015373        -0.019425
 C         2.020356        -1.096687        -1.082427
 C         3.172668        -1.341757        -0.072778
 O         3.948466        -2.553941         0.128937
 C         3.749926         0.031483         0.444760
 O         3.489471         1.227291        -0.327209
 C         2.083841         1.350836        -0.454453
 C         2.541849        -0.494943         1.026381
 H        -0.022169         0.880838         1.151973
 H        -0.697624         0.075664        -0.366928
 H        -0.141785        -0.883819         0.983345
 H         1.267470        -2.016136        -1.212434
 H         2.449734        -0.738328        -2.056693
 H         3.411030        -3.065487         0.709994
 H         4.771733        -0.063434         0.935016
 H         1.708237         2.268663         0.124848
 H         1.871362         1.655474        -1.482075
 H         2.272528        -0.740902         1.993989
