19
Iteration:  2748charge 0 multiplicity 1
 C        -0.026525         0.239313         0.319780
 C         1.447052        -0.092758         0.054855
 C         1.798578        -1.269436        -0.795474
 C         3.137625        -1.345126         0.047501
 O         4.242639        -2.343269        -0.169653
 C         3.774313        -0.036643         0.413675
 O         3.569206         1.178948        -0.286766
 C         2.140188         1.220582        -0.539189
 C         2.504059        -0.510262         1.169580
 H        -0.184788         1.194956         1.031937
 H        -0.382200         0.526793        -0.619314
 H        -0.725674        -0.633071         0.536708
 H         1.156097        -2.260529        -0.635906
 H         2.000920        -1.083866        -1.838724
 H         3.984011        -3.132243         0.356131
 H         4.739841        -0.072651         0.903299
 H         1.729521         2.159118        -0.104255
 H         2.042148         1.340299        -1.608446
 H         2.495781        -0.679019         2.187266
