19
Iteration:  1282charge 0 multiplicity 1
 C         0.057896        -0.104424         0.348684
 C         1.481322         0.052296        -0.071687
 C         2.161924        -0.952990        -1.118152
 C         3.178646        -1.329822        -0.018447
 O         3.748921        -2.572983         0.276674
 C         3.827982        -0.009581         0.351508
 O         3.519935         1.155678        -0.425579
 C         2.147353         1.344628        -0.206438
 C         2.508984        -0.544009         0.969649
 H        -0.228184         0.635867         1.175021
 H        -0.714509        -0.016387        -0.366854
 H        -0.128514        -1.066095         0.670940
 H         1.511758        -1.763171        -1.498995
 H         2.679130        -0.410470        -1.866246
 H         4.539620        -2.564015        -0.365567
 H         4.741401         0.032167         0.885162
 H         1.863853         1.901151         0.667265
 H         1.852210         2.128238        -1.065393
 H         2.341537        -0.485922         2.044531
