19
Iteration:  4915
 C        -0.034020        -0.005851         0.251520
 C         1.464960         0.057923         0.051165
 C         1.999722        -1.096568        -0.949599
 C         3.213676        -1.329855        -0.007916
 O         4.010365        -2.475073         0.076423
 C         3.788659        -0.009825         0.331877
 O         3.516905         1.104047        -0.442410
 C         2.138495         1.372790        -0.281288
 C         2.594556        -0.516023         1.109412
 H        -0.391570         0.666312         1.069123
 H        -0.563025         0.322146        -0.584964
 H        -0.309392        -0.931270         0.513365
 H         1.305053        -1.873531        -0.865619
 H         2.252201        -0.702670        -1.938949
 H         3.504376        -3.181884         0.454420
 H         4.814025         0.049175         0.798278
 H         1.882179         2.102483         0.450265
 H         1.925178         1.708590        -1.377570
 H         2.297478        -0.699133         2.227671
