19
Iteration:   361
 C         0.121879        -0.112324         0.276192
 C         1.557895         0.085795        -0.034225
 C         1.983559        -1.077519        -1.094036
 C         3.161712        -1.334964        -0.103790
 O         3.816340        -2.487639         0.285413
 C         3.794344        -0.036294         0.411415
 O         3.546832         1.172470        -0.338864
 C         2.179449         1.477378        -0.305934
 C         2.538224        -0.554921         1.052850
 H        -0.331202         0.494180         1.193432
 H        -0.359785         0.090702        -0.688635
 H        -0.009921        -1.209542         0.508781
 H         1.166884        -1.789479        -1.075952
 H         2.156362        -0.727741        -2.146810
 H         4.134206        -3.048349        -0.481179
 H         4.772583        -0.066344         0.803518
 H         1.852361         2.140906         0.505182
 H         1.705075         1.788633        -1.315492
 H         2.196926        -0.796246         2.089178
