19
Iteration:  3292charge 0 multiplicity 1
 C         0.047817         0.049380         0.401224
 C         1.536198        -0.046204         0.022606
 C         2.052433        -1.055421        -0.981296
 C         3.295185        -1.278438        -0.048991
 O         3.939153        -2.500846         0.148771
 C         3.780398        -0.017038         0.381086
 O         3.452659         1.096571        -0.494528
 C         2.084826         1.325127        -0.402876
 C         2.558901        -0.487524         1.107684
 H        -0.176147         0.776212         1.209316
 H        -0.670324         0.270269        -0.402561
 H        -0.267141        -1.029870         0.592968
 H         1.288553        -1.886428        -1.154288
 H         2.230976        -0.552531        -2.023727
 H         3.398940        -3.086736         0.637731
 H         4.802848         0.183720         0.825577
 H         1.926127         2.191806         0.295454
 H         1.650943         1.683858        -1.363771
 H         2.421325        -0.768339         2.114855
