19
Iteration:  1150
 C         0.040166         0.085368         0.289127
 C         1.499843        -0.009307        -0.067844
 C         1.859787        -1.185360        -0.940912
 C         3.173742        -1.388757        -0.035223
 O         3.988200        -2.535923         0.047476
 C         3.760149        -0.092828         0.394770
 O         3.620074         1.258660        -0.189373
 C         2.182427         1.414047        -0.445694
 C         2.458424        -0.527609         1.061277
 H        -0.186199         0.778493         1.202093
 H        -0.496420         0.457898        -0.559501
 H        -0.296050        -0.868341         0.617965
 H         1.248552        -2.116551        -0.771850
 H         1.931540        -1.144261        -2.027992
 H         4.936884        -2.166699         0.018126
 H         4.748792        -0.205129         0.881892
 H         1.719773         2.239500         0.173370
 H         1.919962         1.707000        -1.540369
 H         2.185918        -0.600440         2.170311
