19
Iteration:  1241
 C         0.028256        -0.083278         0.174606
 C         1.552844         0.047014         0.017737
 C         1.991073        -1.057399        -0.953976
 C         3.159862        -1.351536        -0.079819
 O         3.814009        -2.512428         0.189972
 C         3.819667         0.008246         0.376840
 O         3.571618         1.187082        -0.340979
 C         2.156090         1.386007        -0.246643
 C         2.574272        -0.515639         1.057530
 H        -0.335990         0.325473         1.135100
 H        -0.544887         0.284781        -0.799992
 H        -0.122184        -1.163440         0.306444
 H         1.310722        -1.836162        -1.006650
 H         2.250118        -0.726891        -2.055134
 H         4.205504        -2.971353        -0.572835
 H         4.766835        -0.039685         0.879054
 H         1.885635         2.267147         0.455461
 H         1.750160         1.801542        -1.171041
 H         2.416484        -0.739453         2.056583
