19
Iteration:  1277
 C         0.028992        -0.121030         0.311640
 C         1.475534         0.055563        -0.053659
 C         2.134616        -0.931940        -1.079862
 C         3.167681        -1.346684        -0.088766
 O         3.773359        -2.544433         0.317641
 C         3.813384        -0.022181         0.337720
 O         3.545377         1.153712        -0.449563
 C         2.144424         1.398065        -0.174819
 C         2.536941        -0.549902         0.969764
 H        -0.206411         0.545491         1.113399
 H        -0.817444         0.039113        -0.448870
 H        -0.048715        -1.259597         0.667127
 H         1.389687        -1.717213        -1.459421
 H         2.645458        -0.390175        -1.948296
 H         4.480927        -2.796725        -0.293839
 H         4.756938         0.008865         0.941093
 H         1.995969         1.971264         0.802229
 H         1.913676         1.929033        -1.057388
 H         2.301646        -0.668032         2.088679
