19
Iteration:  1204charge 0 multiplicity 1
 C         0.042659         0.187034         0.322527
 C         1.530878        -0.020226         0.000850
 C         2.099615        -1.128367        -0.967441
 C         3.277419        -1.370730         0.010163
 O         3.903784        -2.610788        -0.049392
 C         3.689963         0.068255         0.600945
 O         3.502851         1.152099        -0.276998
 C         2.108180         1.308245        -0.494402
 C         2.490216        -0.531342         1.063871
 H        -0.102360         1.060777         1.041621
 H        -0.641951         0.410304        -0.414486
 H        -0.311487        -0.690554         0.837649
 H         1.339067        -1.998052        -1.073536
 H         2.361183        -0.796661        -1.903170
 H         4.754811        -2.426285        -0.578929
 H         4.593080         0.214372         1.226751
 H         1.761945         2.152505         0.078461
 H         1.845467         1.215597        -1.633323
 H         2.163191        -0.770212         2.162975
