19
Iteration:  4100charge 0 multiplicity 1
 C         0.048747         0.151143         0.447570
 C         1.468670         0.029721         0.048778
 C         2.002863        -1.189648        -0.900427
 C         3.212980        -1.338623         0.029051
 O         3.984908        -2.468456        -0.104874
 C         3.734784        -0.018539         0.475009
 O         3.538183         1.103401        -0.379141
 C         2.129721         1.257648        -0.547892
 C         2.492372        -0.468009         1.116547
 H         0.103947         0.771036         1.314821
 H        -0.774723         0.365817        -0.293397
 H        -0.357244        -0.770977         0.863926
 H         1.277135        -2.118663        -0.737929
 H         2.161356        -1.148461        -1.947416
 H         4.846357        -2.291036         0.185127
 H         4.591261         0.204840         1.154574
 H         1.734167         2.317418        -0.277708
 H         1.792490         1.195671        -1.732194
 H         2.312668        -0.577523         2.141851
