19
Iteration:  4137
 C        -0.030584         0.173317         0.391285
 C         1.486508        -0.072072         0.023871
 C         1.973145        -1.241923        -0.880568
 C         3.211540        -1.362169        -0.036615
 O         3.954556        -2.516644        -0.041154
 C         3.780311         0.042700         0.371443
 O         3.541618         1.197790        -0.369677
 C         2.099925         1.289923        -0.422404
 C         2.581320        -0.486783         1.094335
 H        -0.101703         1.015669         1.118229
 H        -0.526037         0.496709        -0.507036
 H        -0.483990        -0.719554         0.918187
 H         1.280817        -2.168982        -0.745948
 H         2.233581        -0.994857        -1.932437
 H         4.750870        -2.317173         0.449508
 H         4.706105         0.033253         0.970007
 H         1.700598         2.207691         0.101115
 H         1.868485         1.161236        -1.585487
 H         2.542615        -0.537629         2.240621
