19
Iteration:  4133charge 0 multiplicity 1
 C        -0.002320         0.183859         0.397718
 C         1.465035        -0.080523         0.074326
 C         1.960859        -1.224433        -0.920088
 C         3.209404        -1.355744        -0.005444
 O         3.967231        -2.506827        -0.054067
 C         3.758654         0.001211         0.382645
 O         3.542284         1.201438        -0.364874
 C         2.106506         1.283742        -0.485032
 C         2.587940        -0.501926         1.133048
 H        -0.083166         1.026056         1.025899
 H        -0.573134         0.588380        -0.496395
 H        -0.400511        -0.719164         0.872681
 H         1.312193        -2.182641        -0.865482
 H         2.201347        -0.992773        -1.924335
 H         4.792639        -2.332755         0.460274
 H         4.644222         0.191368         0.972439
 H         1.655538         2.155126         0.068174
 H         1.809064         1.176598        -1.564738
 H         2.593081        -0.508958         2.180095
