19
Iteration:  2176charge 0 multiplicity 1
 C        -0.086609         0.104873         0.219179
 C         1.453577        -0.000780         0.103177
 C         1.997046        -1.165774        -0.884348
 C         3.193582        -1.333583        -0.001452
 O         4.015590        -2.428198        -0.166307
 C         3.768355        -0.048088         0.458489
 O         3.562498         1.122599        -0.257514
 C         2.177489         1.254952        -0.536907
 C         2.496093        -0.447246         1.240284
 H        -0.417527         0.766658         1.115279
 H        -0.609559         0.413242        -0.587032
 H        -0.379850        -0.872426         0.606322
 H         1.331561        -2.092986        -0.624713
 H         2.040040        -1.025445        -1.936464
 H         4.871125        -2.238676         0.349541
 H         4.652751        -0.095064         0.968147
 H         1.795632         2.089814        -0.039647
 H         2.032952         1.289864        -1.611162
 H         2.576941        -0.523559         2.312588
