19
Iteration:  3898
 C        -0.012311         0.087364         0.406971
 C         1.422072        -0.013765         0.004079
 C         2.003966        -1.222448        -0.893940
 C         3.165600        -1.357648         0.021518
 O         4.045112        -2.487767        -0.039473
 C         3.762029         0.017324         0.382565
 O         3.533911         1.159911        -0.389228
 C         2.165305         1.318777        -0.427173
 C         2.520943        -0.462578         1.073215
 H        -0.109113         1.013274         1.094307
 H        -0.641236         0.551406        -0.297410
 H        -0.453278        -0.873878         0.604682
 H         1.333787        -2.063850        -0.898154
 H         2.160409        -0.974724        -2.107143
 H         4.239916        -2.811130         0.839798
 H         4.767941        -0.027299         0.863041
 H         1.927791         2.263336         0.273197
 H         1.921448         1.537622        -1.499219
 H         2.397067        -0.581869         2.128830
