19
Iteration:  1203
 C         0.044168         0.191701         0.324705
 C         1.528902        -0.016780        -0.001571
 C         2.102149        -1.118661        -0.963522
 C         3.278882        -1.365750         0.004511
 O         3.908171        -2.608120        -0.047256
 C         3.682094         0.063069         0.600619
 O         3.508213         1.150070        -0.275517
 C         2.101923         1.301388        -0.503608
 C         2.484574        -0.538564         1.068797
 H        -0.078488         1.041847         1.022497
 H        -0.609120         0.431060        -0.415150
 H        -0.299633        -0.699944         0.895360
 H         1.319849        -1.981380        -1.065638
 H         2.321984        -0.812192        -1.915626
 H         4.773325        -2.397930        -0.561147
 H         4.581936         0.189670         1.242782
 H         1.763749         2.120517         0.051778
 H         1.847519         1.231311        -1.636487
 H         2.180554        -0.803428         2.146682
