19
Iteration:  4580
 C         0.076749        -0.087478         0.424548
 C         1.558827         0.016557        -0.017753
 C         2.107046        -1.030213        -0.969901
 C         3.285933        -1.298939        -0.072325
 O         3.818984        -2.540787         0.180854
 C         3.818062         0.077487         0.380814
 O         3.489216         1.128808        -0.474777
 C         2.045100         1.411235        -0.344902
 C         2.568382        -0.517638         1.035627
 H        -0.056787         0.489244         1.361021
 H        -0.569988         0.186729        -0.430694
 H        -0.165211        -1.175832         0.650094
 H         1.417392        -1.910159        -1.109125
 H         2.208162        -0.614285        -2.013229
 H         3.043792        -3.124979         0.124156
 H         4.787910         0.064237         0.879237
 H         1.842900         2.256644         0.420154
 H         1.637871         1.631655        -1.488259
 H         2.543909        -0.865755         2.031726
