19
Iteration:  3426charge 0 multiplicity 1
 C         0.029995        -0.027540         0.430460
 C         1.475652         0.038741        -0.076244
 C         2.045885        -1.213239        -1.032287
 C         3.173074        -1.337887        -0.061450
 O         3.956581        -2.477142         0.199538
 C         3.795825         0.017089         0.385184
 O         3.507859         1.163858        -0.437305
 C         2.164775         1.453093        -0.338887
 C         2.533970        -0.481701         0.971523
 H        -0.141550         0.691591         1.396248
 H        -0.707582         0.125676        -0.290891
 H        -0.118205        -1.110038         0.779027
 H         1.448001        -2.160125        -1.188831
 H         2.317048        -0.888023        -2.100077
 H         3.446917        -3.205835         0.498691
 H         4.671896        -0.131638         0.888549
 H         1.890001         2.002735         0.615589
 H         1.891453         2.080437        -1.233338
 H         2.382773        -0.574717         2.049193
