19
Iteration:  3151charge 0 multiplicity 1
 C        -0.035109         0.190383         0.297534
 C         1.418778        -0.054575         0.105327
 C         1.848432        -1.283924        -0.804232
 C         3.207664        -1.299185         0.025440
 O         4.162852        -2.302808        -0.082999
 C         3.781237        -0.046542         0.482840
 O         3.566497         1.124731        -0.401441
 C         2.193499         1.230336        -0.530848
 C         2.487159        -0.497177         1.174940
 H        -0.256700         0.973075         1.206090
 H        -0.368118         0.634780        -0.657702
 H        -0.630326        -0.768428         0.311395
 H         1.384091        -2.301011        -0.438541
 H         1.706893        -1.078631        -1.894585
 H         3.838382        -3.055950        -0.551727
 H         4.738373        -0.087552         0.899633
 H         1.845185         2.070007         0.126479
 H         1.860488         1.480678        -1.496433
 H         2.541027        -0.689750         2.192336
