19
Iteration:  1281charge 0 multiplicity 1
 C         0.050902        -0.107360         0.337323
 C         1.477443         0.055796        -0.067745
 C         2.160713        -0.944521        -1.110362
 C         3.175584        -1.331278        -0.032458
 O         3.754132        -2.567464         0.285606
 C         3.826484        -0.012414         0.348043
 O         3.524383         1.156067        -0.431335
 C         2.148139         1.350942        -0.193872
 C         2.516625        -0.548240         0.963348
 H        -0.229346         0.630991         1.167037
 H        -0.711485        -0.017396        -0.339760
 H        -0.114076        -1.111658         0.662141
 H         1.459543        -1.781143        -1.505445
 H         2.661637        -0.423077        -1.842005
 H         4.516723        -2.601303        -0.344860
 H         4.740638         0.029935         0.892732
 H         1.888148         1.893758         0.664437
 H         1.868679         2.109595        -1.086328
 H         2.322453        -0.513470         2.090685
