19
Iteration:   108
 C         0.032650         0.107879         0.238972
 C         1.516652        -0.039947        -0.022350
 C         2.082865        -1.126141        -0.993386
 C         3.205095        -1.340714         0.084379
 O         3.871777        -2.571804         0.064512
 C         3.747774         0.041260         0.452957
 O         3.525730         1.125399        -0.403054
 C         2.107444         1.315702        -0.365039
 C         2.535102        -0.489870         1.150840
 H        -0.090661         0.738386         1.205111
 H        -0.442356         0.634827        -0.648215
 H        -0.476588        -0.753404         0.505077
 H         1.448644        -1.947991        -1.069180
 H         2.526391        -0.776678        -2.017469
 H         4.535595        -2.618546        -0.601867
 H         4.672050         0.200279         0.994486
 H         1.938955         1.979367         0.513047
 H         1.680083         1.710104        -1.274305
 H         2.250918        -0.456898         2.212741
