19
Iteration:  1516charge 0 multiplicity 1
 C        -0.053437        -0.000213         0.366728
 C         1.477741         0.005430         0.011213
 C         2.084655        -1.145548        -1.002394
 C         3.193740        -1.366340        -0.021985
 O         3.922198        -2.554202         0.093351
 C         3.775156        -0.009142         0.468678
 O         3.613524         1.219608        -0.337553
 C         2.161874         1.412366        -0.409035
 C         2.497550        -0.452336         1.073209
 H        -0.226987         0.702330         1.121886
 H        -0.645282         0.242926        -0.573830
 H        -0.367440        -1.038362         0.732440
 H         1.420446        -1.961790        -1.061395
 H         2.432199        -0.848617        -2.048614
 H         3.801645        -3.053081        -0.718312
 H         4.691356        -0.051977         0.948301
 H         1.833913         2.277351         0.059702
 H         1.759782         1.541428        -1.528953
 H         2.225523        -0.590170         2.105183
