19
Iteration:  2860charge 0 multiplicity 1
 C        -0.039463        -0.119045         0.309328
 C         1.513008        -0.011498         0.086083
 C         2.082596        -1.052002        -0.934327
 C         3.219887        -1.317088        -0.037393
 O         3.880714        -2.453105         0.234554
 C         3.838696         0.013091         0.281079
 O         3.467985         1.031874        -0.606040
 C         2.178324         1.494702        -0.221526
 C         2.555127        -0.443057         1.067963
 H        -0.446931         0.404099         1.188344
 H        -0.624424         0.094208        -0.702823
 H        -0.257627        -1.227199         0.414612
 H         1.416735        -1.892924        -1.106830
 H         2.445321        -0.622147        -1.971159
 H         3.677382        -3.337755        -0.197469
 H         4.869674         0.135175         0.746428
 H         1.985206         2.078507         0.709119
 H         1.744004         2.095840        -1.013145
 H         2.571447        -0.573037         2.217669
