19
Iteration:   432charge 0 multiplicity 1
 C         0.012361         0.168004         0.344057
 C         1.483047        -0.007330        -0.007444
 C         2.059198        -1.128491        -0.953479
 C         3.236738        -1.358740         0.032175
 O         3.973479        -2.526298        -0.096293
 C         3.714870        -0.019990         0.564984
 O         3.537312         1.120046        -0.338157
 C         2.145083         1.340179        -0.525918
 C         2.419464        -0.558409         1.136284
 H         0.004846         0.857400         1.122759
 H        -0.551999         0.545122        -0.534424
 H        -0.390416        -0.799834         0.788055
 H         1.443595        -2.064488        -0.889060
 H         2.300732        -0.891626        -2.004568
 H         4.817223        -2.557683         0.447703
 H         4.619210        -0.019650         1.198806
 H         1.699504         2.265728         0.066755
 H         2.059956         1.542085        -1.521463
 H         2.110872        -0.412432         2.139535
