19
Iteration:  1015charge 0 multiplicity 1
 C         0.098528         0.180817         0.261587
 C         1.562891         0.019783         0.088263
 C         2.038723        -1.016492        -0.965767
 C         3.267632        -1.362405        -0.018961
 O         3.889644        -2.676461        -0.016413
 C         3.730068        -0.020903         0.534274
 O         3.469471         1.207011        -0.284404
 C         2.072038         1.340592        -0.522499
 C         2.485911        -0.627243         1.122947
 H        -0.170337         0.832643         1.068700
 H        -0.395678         0.517324        -0.613662
 H        -0.303725        -0.808324         0.650842
 H         1.393713        -1.992347        -1.060479
 H         2.374379        -0.736821        -1.917338
 H         4.835514        -2.546587        -0.234030
 H         4.468513         0.215968         1.327805
 H         1.696882         2.292619        -0.036973
 H         1.907597         1.429222        -1.714320
 H         2.509449        -0.676359         2.304482
