19
Iteration:  2887
 C         0.020590        -0.022370         0.256711
 C         1.556976        -0.051341         0.097034
 C         2.008098        -1.154325        -0.877019
 C         3.236452        -1.334416         0.028475
 O         3.942635        -2.555828         0.062456
 C         3.806124         0.071522         0.358093
 O         3.502526         1.166508        -0.506067
 C         2.113341         1.403572        -0.395834
 C         2.572545        -0.382193         1.184341
 H        -0.283743         0.521612         1.178572
 H        -0.585428         0.262153        -0.600553
 H        -0.241145        -1.050430         0.451677
 H         1.286544        -2.010701        -0.827992
 H         2.094773        -0.878356        -1.918541
 H         3.374636        -3.359884        -0.223219
 H         4.706642         0.242560         0.874109
 H         1.772768         2.075384         0.442612
 H         1.646147         1.814465        -1.345420
 H         2.484166        -0.555632         2.199678
