19
Iteration:  4266
 C         0.028167         0.053167         0.341309
 C         1.531875        -0.005695         0.091290
 C         1.864270        -1.227124        -0.954355
 C         3.178002        -1.389372        -0.082704
 O         3.956463        -2.529368         0.188767
 C         3.818422        -0.016476         0.283084
 O         3.543573         1.335687        -0.296809
 C         2.111022         1.343026        -0.433003
 C         2.600794        -0.474290         1.076587
 H        -0.172768         0.722317         1.155885
 H        -0.585788         0.486052        -0.604664
 H        -0.386224        -1.064200         0.478306
 H         1.252844        -2.279591        -0.890888
 H         1.906262        -1.008196        -1.990869
 H         4.464379        -2.629882        -0.653690
 H         4.869457        -0.136858         0.600594
 H         1.776382         2.218945         0.114866
 H         1.858503         1.486273        -1.504857
 H         2.564897        -0.893308         2.127094
