19
Iteration:   907
 C         0.131472        -0.026095         0.354977
 C         1.573139        -0.022517        -0.018727
 C         2.192077        -1.018741        -1.061692
 C         3.286552        -1.304343        -0.011991
 O         3.566686        -2.631285         0.086449
 C         3.817855         0.076710         0.534846
 O         3.513212         1.196333        -0.384564
 C         2.052647         1.380409        -0.375850
 C         2.547365        -0.516652         1.047089
 H        -0.097703         0.946111         0.939894
 H        -0.550459        -0.022104        -0.423215
 H        -0.044894        -1.055642         0.806819
 H         1.681680        -2.068575        -1.276109
 H         2.529017        -0.558836        -1.947095
 H         4.424121        -2.850429        -0.200166
 H         4.711353         0.137847         1.177172
 H         1.637305         2.098664         0.321142
 H         1.875443         1.677131        -1.378563
 H         2.467738        -0.975334         2.083933
