19
Iteration:   694
 C        -0.027563         0.045975         0.295429
 C         1.482676         0.036929         0.028424
 C         2.150158        -1.018998        -1.021874
 C         3.222919        -1.322004         0.021958
 O         3.835369        -2.653446         0.105947
 C         3.778015        -0.030323         0.379656
 O         3.565434         1.121128        -0.451198
 C         2.097247         1.366680        -0.302152
 C         2.520993        -0.478992         1.083447
 H        -0.510139         0.567019         1.053236
 H        -0.511222         0.431947        -0.627967
 H        -0.529520        -0.948337         0.466385
 H         1.602374        -1.899372        -1.292475
 H         2.558788        -0.447393        -1.860649
 H         4.648728        -2.574442         0.555938
 H         4.727739         0.104766         0.950494
 H         1.955348         2.046375         0.527455
 H         1.688927         1.845738        -1.320889
 H         2.397069        -0.615322         2.207058
