19
Iteration:   493
 C         0.120353         0.016819         0.264137
 C         1.573687         0.028921         0.012329
 C         2.024489        -1.134850        -0.982580
 C         3.182241        -1.399623         0.018473
 O         3.823132        -2.748740         0.004088
 C         3.772777         0.026633         0.394429
 O         3.526911         1.353825        -0.248371
 C         2.101017         1.381073        -0.411392
 C         2.576758        -0.428210         1.067799
 H        -0.136739         0.950190         0.876863
 H        -0.596661         0.116114        -0.533922
 H        -0.362931        -0.911603         0.709438
 H         1.207975        -1.918364        -0.905423
 H         2.194070        -0.933354        -2.044561
 H         4.482360        -2.808913         0.738222
 H         4.735461         0.058892         0.995739
 H         1.608388         2.112767         0.185096
 H         1.916327         1.537701        -1.600385
 H         2.273691        -0.580539         2.084909
