19
Iteration:  3973
 C         0.036435        -0.080536         0.419995
 C         1.537093         0.038917         0.019670
 C         1.942905        -1.136371        -0.899068
 C         3.149250        -1.395940        -0.033668
 O         3.978859        -2.453009         0.044866
 C         3.770299         0.020957         0.387521
 O         3.578713         1.180767        -0.377844
 C         2.153989         1.370432        -0.524665
 C         2.554134        -0.432293         1.078348
 H        -0.302594         0.579427         1.320963
 H        -0.706428         0.263167        -0.318625
 H        -0.102722        -1.192111         0.828199
 H         1.176382        -1.922408        -0.906308
 H         2.280930        -0.731705        -1.893433
 H         3.355508        -3.203882         0.294755
 H         4.752093        -0.060969         0.815729
 H         1.803235         2.200536         0.185845
 H         1.889550         1.447055        -1.542411
 H         2.351053        -0.445164         2.117011
