19
Iteration:  4442charge 0 multiplicity 1
 C        -0.015470        -0.008058         0.459673
 C         1.506369         0.017461         0.066678
 C         1.963502        -1.086306        -0.977892
 C         3.194667        -1.307318        -0.053603
 O         3.908929        -2.452784         0.038880
 C         3.775124         0.002258         0.411904
 O         3.568998         1.047835        -0.448803
 C         2.163040         1.300073        -0.467512
 C         2.559309        -0.437007         1.080018
 H        -0.159083         0.511553         1.340871
 H        -0.814136         0.210328        -0.365957
 H        -0.156620        -1.027556         1.010082
 H         1.251446        -1.998143        -1.201776
 H         2.146801        -0.589904        -1.933681
 H         4.637628        -2.240712         0.712895
 H         4.777231        -0.125099         0.780663
 H         1.922163         2.300904         0.265031
 H         1.780546         1.468512        -1.432775
 H         2.346234        -0.612626         2.100113
