19
Iteration:  3713
 C        -0.038498         0.162097         0.299401
 C         1.501184        -0.007658         0.127673
 C         1.929747        -1.193897        -0.854694
 C         3.203334        -1.314519        -0.024148
 O         4.096067        -2.406317        -0.050468
 C         3.796395        -0.017811         0.389218
 O         3.544879         1.175563        -0.261855
 C         2.074398         1.221229        -0.528928
 C         2.535868        -0.513072         1.146751
 H        -0.297898         1.202219         0.811556
 H        -0.447646         0.367024        -0.658196
 H        -0.533744        -0.715114         0.588917
 H         1.271647        -2.017635        -0.598732
 H         2.112750        -1.093452        -1.945923
 H         3.621003        -3.269836         0.019645
 H         4.808053        -0.178489         0.730042
 H         1.788823         2.180318        -0.087843
 H         2.071065         1.258455        -1.739871
 H         2.467752        -0.876625         2.177581
