19
Iteration:  3590charge 0 multiplicity 1
 C         0.004070         0.003912         0.320200
 C         1.546973        -0.000535        -0.022084
 C         1.918959        -1.262233        -0.878904
 C         3.227026        -1.303280        -0.011356
 O         4.009718        -2.473668         0.030327
 C         3.816983        -0.002347         0.430375
 O         3.561565         1.202994        -0.455214
 C         2.113610         1.363656        -0.377207
 C         2.515429        -0.436757         1.126041
 H        -0.220558         0.787524         1.133268
 H        -0.489054         0.333994        -0.529065
 H        -0.366429        -1.042432         0.508968
 H         1.250016        -2.054747        -0.709716
 H         1.827121        -1.143569        -1.967633
 H         3.303127        -3.200803         0.161625
 H         4.771176        -0.046979         1.089999
 H         1.859983         2.203252         0.249717
 H         1.930396         1.882757        -1.439151
 H         2.426148        -0.538842         2.207098
