19
Iteration:  2731charge 0 multiplicity 1
 C        -0.009898         0.262779         0.319758
 C         1.474870        -0.033981         0.068699
 C         1.907771        -1.273835        -0.845325
 C         3.242456        -1.360134        -0.075818
 O         4.192149        -2.298763        -0.054687
 C         3.666204        -0.019706         0.479865
 O         3.539203         1.075006        -0.415335
 C         2.125614         1.261542        -0.440810
 C         2.520284        -0.566186         1.131546
 H        -0.025637         1.035626         0.982147
 H        -0.593608         0.660665        -0.625963
 H        -0.550563        -0.525325         0.810462
 H         1.345624        -2.103674        -0.565763
 H         1.844038        -1.143884        -1.996977
 H         3.876727        -3.165665         0.193048
 H         4.634031        -0.055822         0.952113
 H         1.875040         2.055613         0.287729
 H         1.674496         1.469906        -1.459190
 H         2.241823        -0.696494         2.238034
