19
Iteration:  1816charge 0 multiplicity 1
 C        -0.060867        -0.039763         0.247810
 C         1.477874         0.006534         0.057105
 C         2.016940        -1.192265        -0.892990
 C         3.182899        -1.337815         0.015925
 O         3.888344        -2.549673         0.002530
 C         3.812211         0.031101         0.385700
 O         3.622392         1.239066        -0.360508
 C         2.146342         1.365988        -0.407514
 C         2.529951        -0.477438         1.064784
 H        -0.098238         0.639040         1.202384
 H        -0.698277         0.360035        -0.479011
 H        -0.309223        -1.064169         0.489440
 H         1.303277        -2.168168        -0.839685
 H         2.183828        -0.956513        -1.935229
 H         4.564097        -2.609155         0.724795
 H         4.748909        -0.026207         0.947612
 H         1.759244         2.138596         0.263555
 H         1.757551         1.827966        -1.432834
 H         2.491059        -0.255025         2.087193
