19
Iteration:  2079
 C         0.177278        -0.313191         0.335028
 C         1.568572         0.092695         0.016933
 C         2.060943        -1.053252        -1.081234
 C         3.177772        -1.314344        -0.047694
 O         3.695693        -2.600970         0.248428
 C         3.839420         0.047667         0.392815
 O         3.527543         1.246619        -0.409520
 C         2.100848         1.508192        -0.379544
 C         2.556090        -0.441631         1.085144
 H        -0.231112         0.266705         1.303190
 H        -0.402069         0.022638        -0.489285
 H         0.051145        -1.349470         0.522511
 H         1.468822        -2.083944        -1.099029
 H         2.374142        -0.834426        -2.064643
 H         3.815027        -3.074364        -0.656028
 H         4.733199         0.044939         0.924438
 H         1.998670         2.394120         0.439591
 H         1.680517         1.779942        -1.308316
 H         2.302116        -0.608667         2.110500
