19
Iteration:  2663
 C         0.148274        -0.335937         0.410651
 C         1.576627         0.055559         0.009668
 C         2.063567        -0.967940        -0.963148
 C         3.161745        -1.275681        -0.091016
 O         3.694418        -2.544716         0.192315
 C         3.846967         0.068485         0.338374
 O         3.509395         1.159125        -0.508113
 C         2.096388         1.467280        -0.402652
 C         2.665024        -0.430005         1.113682
 H        -0.225149         0.132768         1.261393
 H        -0.579615        -0.223933        -0.443492
 H         0.200303        -1.446356         0.658676
 H         1.297244        -1.695709        -0.994327
 H         2.481760        -0.815070        -2.010706
 H         3.014028        -3.004175         0.717066
 H         4.814042         0.060961         0.892293
 H         1.865406         2.320604         0.259414
 H         1.791365         1.610537        -1.449860
 H         2.513862        -0.549073         2.126733
