19
Iteration:  3582charge 0 multiplicity 1
 C         0.067100         0.083350         0.326884
 C         1.480542        -0.013311        -0.060053
 C         1.943314        -1.243674        -0.884861
 C         3.223128        -1.295984        -0.001647
 O         4.039170        -2.459083        -0.011286
 C         3.716891         0.032457         0.445182
 O         3.548952         1.158822        -0.395420
 C         2.153200         1.349461        -0.430039
 C         2.515060        -0.483057         1.120305
 H        -0.209213         0.874181         1.181706
 H        -0.526178         0.333011        -0.566459
 H        -0.346789        -0.749919         0.794481
 H         1.387828        -2.138617        -0.451848
 H         1.937671        -1.245445        -1.979308
 H         3.507584        -3.285174         0.260342
 H         4.646372         0.066922         0.960342
 H         1.778012         2.113629         0.335912
 H         1.832542         1.544469        -1.478947
 H         2.538914        -0.659575         2.209861
