19
Iteration:   749charge 0 multiplicity 1
 C        -0.130288        -0.108844         0.356357
 C         1.460366         0.037512        -0.068120
 C         2.016239        -1.121179        -0.933125
 C         3.202175        -1.279571        -0.085457
 O         3.814183        -2.512435         0.024964
 C         3.818283        -0.010788         0.445380
 O         3.699021         1.200527        -0.260323
 C         2.224694         1.379626        -0.450017
 C         2.529149        -0.501786         1.047076
 H        -0.264524         0.691669         0.944123
 H        -0.847915         0.149276        -0.494392
 H        -0.422258        -1.089786         0.658688
 H         1.498547        -1.996011        -0.715290
 H         2.098257        -1.015533        -2.041134
 H         4.178247        -2.634238         0.902442
 H         4.774143         0.002531         1.044098
 H         1.909625         2.163231         0.138805
 H         2.073918         1.683461        -1.581768
 H         2.483075        -0.507859         2.117681
