19
Iteration:  1586charge 0 multiplicity 1
 C        -0.054466         0.294538         0.239633
 C         1.491386        -0.093309         0.009927
 C         2.038904        -1.239291        -0.902142
 C         3.206040        -1.344177        -0.016574
 O         4.012786        -2.519981        -0.035473
 C         3.835928         0.027915         0.434896
 O         3.499534         1.266988        -0.157658
 C         2.097242         1.145020        -0.490740
 C         2.562554        -0.504139         1.163393
 H        -0.010643         1.171488         1.066653
 H        -0.625978         0.684908        -0.598445
 H        -0.648468        -0.558459         0.730862
 H         1.290438        -2.146225        -0.893605
 H         2.221837        -0.903547        -1.883632
 H         4.110404        -2.743149        -0.971363
 H         4.825560        -0.042888         1.001521
 H         1.469598         1.990958        -0.226248
 H         1.959650         1.161226        -1.637465
 H         2.223919        -0.810867         2.209661
