19
Iteration:   849
 C         0.023268         0.001839         0.216350
 C         1.559217         0.007310         0.005485
 C         2.033938        -1.058062        -1.037424
 C         3.054745        -1.344273        -0.014064
 O         3.918752        -2.481260         0.205243
 C         3.773717        -0.047970         0.359530
 O         3.527235         1.118792        -0.346844
 C         2.196775         1.401347        -0.259245
 C         2.526882        -0.492464         1.098825
 H        -0.221934         0.346315         1.135955
 H        -0.418610         0.513841        -0.677287
 H        -0.262790        -1.008700         0.251006
 H         1.222380        -1.750822        -1.042522
 H         2.339738        -0.797718        -2.073520
 H         4.366753        -2.721652        -0.687183
 H         4.782127        -0.300929         0.637713
 H         1.949843         2.116448         0.420750
 H         1.916834         1.779015        -1.318339
 H         2.302669        -0.793460         2.154876
