19
Iteration:  4082
 C        -0.011791         0.051325         0.505875
 C         1.451804        -0.063400        -0.032699
 C         1.963525        -1.238337        -0.828720
 C         3.226750        -1.280390        -0.029788
 O         3.940447        -2.523568        -0.029590
 C         3.721104         0.019340         0.433823
 O         3.644031         1.165300        -0.415209
 C         2.182372         1.346133        -0.517905
 C         2.485242        -0.428616         1.093337
 H        -0.250182         0.854924         1.200702
 H        -0.586455         0.383027        -0.365450
 H        -0.401375        -1.030548         0.707228
 H         1.304660        -2.194947        -0.784615
 H         2.085842        -1.073855        -1.917694
 H         4.829456        -2.247646         0.025711
 H         4.705095        -0.000706         0.822038
 H         1.731369         1.976324         0.231145
 H         1.928276         1.761906        -1.503907
 H         2.213907        -0.377945         2.166828
