19
Iteration:  1562charge 0 multiplicity 1
 C        -0.003435         0.304560         0.268634
 C         1.485238        -0.040757         0.087522
 C         1.915273        -1.279054        -0.848854
 C         3.214028        -1.344329        -0.085194
 O         4.169780        -2.407612        -0.046041
 C         3.707039        -0.042498         0.505624
 O         3.535924         1.165701        -0.203156
 C         2.144685         1.301380        -0.563607
 C         2.463018        -0.648890         1.147529
 H        -0.088830         1.195456         0.964112
 H        -0.287463         0.678357        -0.700765
 H        -0.802188        -0.505364         0.594516
 H         1.248305        -2.134520        -0.522469
 H         1.938046        -1.169774        -1.942129
 H         4.215883        -2.731017        -0.924261
 H         4.612432        -0.094564         1.209696
 H         1.630459         2.167822        -0.262822
 H         2.037401         1.358703        -1.761543
 H         2.242386        -0.706847         2.160583
