19
Iteration:  3763charge 0 multiplicity 1
 C         0.021466         0.141532         0.348228
 C         1.512724         0.007832         0.019720
 C         1.986282        -1.204733        -0.884802
 C         3.204630        -1.407005         0.050266
 O         4.112886        -2.388149        -0.066264
 C         3.698075        -0.063372         0.484395
 O         3.506927         1.098259        -0.423507
 C         2.146100         1.337470        -0.477686
 C         2.457847        -0.420135         1.158400
 H        -0.070565         0.657768         1.270352
 H        -0.709774         0.579731        -0.409159
 H        -0.255873        -0.967506         0.618339
 H         1.361633        -2.099914        -0.675491
 H         2.178648        -0.831674        -1.916743
 H         3.699888        -3.221928        -0.237593
 H         4.637527        -0.103907         0.969424
 H         1.837896         2.284967         0.052845
 H         2.036342         1.424638        -1.477385
 H         2.187257        -0.584626         2.212334
