19
Iteration:  2652charge 0 multiplicity 1
 C         0.177545        -0.356520         0.432906
 C         1.536194         0.078689         0.043867
 C         2.006930        -1.048971        -1.062477
 C         3.240035        -1.279034         0.009630
 O         3.656927        -2.567610         0.164235
 C         3.823022         0.046651         0.390312
 O         3.557196         1.232424        -0.523183
 C         2.124601         1.421434        -0.418939
 C         2.608945        -0.380391         1.081734
 H        -0.210904         0.127440         1.273752
 H        -0.562439        -0.273066        -0.414923
 H         0.253393        -1.471442         0.669399
 H         1.306967        -1.844221        -1.229981
 H         2.227263        -0.542829        -2.078509
 H         3.245466        -2.818849         0.958783
 H         4.906122         0.029096         0.722829
 H         1.805944         2.143721         0.340380
 H         1.852627         1.903930        -1.374763
 H         2.677553        -0.472885         2.102619
