19
Iteration:  4730
 C         0.015540        -0.080483         0.391997
 C         1.491411        -0.019715        -0.033613
 C         2.075173        -1.177121        -1.040672
 C         3.244761        -1.337451        -0.041648
 O         3.876061        -2.504329         0.175004
 C         3.792658         0.011211         0.338237
 O         3.582019         1.214373        -0.378831
 C         2.106584         1.432641        -0.344916
 C         2.511036        -0.403426         1.046792
 H        -0.194584         0.501099         1.398030
 H        -0.526346         0.389427        -0.417042
 H        -0.189856        -1.088992         0.502650
 H         1.461787        -1.968808        -0.884546
 H         2.196600        -1.011753        -2.133536
 H         3.383942        -3.138321        -0.297264
 H         4.686278        -0.034823         0.915150
 H         1.896484         2.012140         0.572008
 H         1.837626         1.999280        -1.241040
 H         2.415433        -0.926593         2.009658
