19
Iteration:  2057
 C         0.049640        -0.325006         0.381159
 C         1.552055         0.045592        -0.081839
 C         2.175195        -1.014431        -1.057905
 C         3.248244        -1.368364         0.010727
 O         3.598771        -2.604553         0.246935
 C         3.843135         0.122100         0.364652
 O         3.558908         1.232638        -0.433675
 C         2.088737         1.434754        -0.331767
 C         2.586286        -0.363837         0.985920
 H        -0.162257         0.202965         1.452994
 H        -0.737953        -0.241668        -0.332330
 H         0.235590        -1.298672         0.760231
 H         1.576346        -1.964161        -1.453797
 H         2.637582        -0.524395        -1.858438
 H         3.641783        -3.093307        -0.532759
 H         4.761395         0.165623         0.913501
 H         2.009142         1.889234         0.808737
 H         1.722492         2.042038        -1.108708
 H         2.403767        -0.397057         2.042381
