19
Iteration:   801charge 0 multiplicity 1
 C        -0.012055         0.212057         0.302325
 C         1.490053        -0.011145        -0.006726
 C         2.152419        -1.192569        -0.982269
 C         3.225182        -1.346473         0.021952
 O         3.873181        -2.569239        -0.050065
 C         3.792023        -0.010672         0.496457
 O         3.536427         1.166757        -0.280960
 C         2.054741         1.284956        -0.465074
 C         2.484491        -0.480413         1.133552
 H         0.006185         1.038647         1.101326
 H        -0.545382         0.397377        -0.664066
 H        -0.491251        -0.723139         0.793743
 H         1.605019        -2.171011        -1.155778
 H         2.523685        -0.780017        -1.962909
 H         4.762203        -2.622112         0.237860
 H         4.769830         0.065899         1.023216
 H         1.609526         2.097938         0.196030
 H         1.858765         1.603960        -1.492600
 H         2.237696        -0.747221         2.173257
