19
Iteration:  1857
 C         0.068678        -0.184885         0.305675
 C         1.540923         0.022517         0.039129
 C         2.181138        -0.891843        -1.009399
 C         3.245778        -1.359060         0.046755
 O         3.719140        -2.603924         0.166200
 C         3.793222         0.054183         0.352834
 O         3.459571         1.074982        -0.586775
 C         2.099528         1.465786        -0.250004
 C         2.560841        -0.505787         1.052560
 H        -0.232774         0.521482         1.124829
 H        -0.473618         0.074545        -0.588757
 H        -0.304646        -1.285953         0.543349
 H         1.453825        -1.602352        -1.418076
 H         2.605242        -0.405416        -1.834812
 H         4.420760        -2.625171         0.891802
 H         4.592667         0.197216         0.970323
 H         2.097850         2.280229         0.560946
 H         1.674618         1.778803        -1.145617
 H         2.553872        -0.495578         2.122708
