19
Iteration:  4090charge 0 multiplicity 1
 C        -0.010908         0.100887         0.490831
 C         1.480483        -0.004495         0.002770
 C         1.978007        -1.252857        -0.911541
 C         3.214782        -1.309755         0.018234
 O         3.962564        -2.490122        -0.077099
 C         3.760266         0.027698         0.452215
 O         3.586203         1.139783        -0.397535
 C         2.142763         1.289517        -0.559272
 C         2.449997        -0.450192         1.121714
 H        -0.157973         0.789477         1.279200
 H        -0.686074         0.483884        -0.327045
 H        -0.252896        -0.925227         0.870082
 H         1.398646        -2.269544        -0.617396
 H         2.035989        -1.047655        -1.924949
 H         4.887638        -2.306502         0.081102
 H         4.539722        -0.043418         1.199670
 H         1.940200         2.150453         0.171370
 H         2.013310         1.573568        -1.735889
 H         2.451962        -0.417770         2.166337
