19
Iteration:    91
 C        -0.051132         0.123550         0.285432
 C         1.463211         0.000026        -0.039573
 C         2.003315        -1.187506        -0.884880
 C         3.225329        -1.308264        -0.040863
 O         3.939611        -2.481939         0.049068
 C         3.793796        -0.020061         0.501496
 O         3.626469         1.135143        -0.331995
 C         2.176673         1.316656        -0.416099
 C         2.424455        -0.476209         1.047643
 H        -0.181300         0.734245         1.123545
 H        -0.598519         0.532583        -0.528376
 H        -0.479768        -0.956448         0.531790
 H         1.411939        -2.174215        -0.613784
 H         1.998181        -1.113629        -1.918291
 H         4.705588        -2.358920        -0.476417
 H         4.710956        -0.281488         1.128344
 H         1.768434         2.140359         0.194351
 H         2.016280         1.649912        -1.485271
 H         2.302553        -0.806038         2.091524
