19
Iteration:  3370
 C        -0.088384         0.153046         0.302929
 C         1.417051        -0.065631         0.084931
 C         1.979784        -1.174345        -0.763217
 C         3.223704        -1.282295        -0.027951
 O         4.040888        -2.417797        -0.165747
 C         3.786165         0.063383         0.504879
 O         3.567880         1.209105        -0.270631
 C         2.162731         1.175969        -0.634408
 C         2.561607        -0.529509         1.211489
 H        -0.122292         1.104685         1.016428
 H        -0.540951         0.420211        -0.618636
 H        -0.600699        -0.681240         0.931871
 H         1.480242        -2.225551        -0.548869
 H         2.249221        -1.065499        -1.895924
 H         3.466872        -3.201284        -0.085826
 H         4.715069        -0.226911         0.986920
 H         1.767483         2.193144        -0.527057
 H         2.111104         0.910441        -1.757843
 H         2.367150        -0.771956         2.295104
