19
Iteration:  2103charge 0 multiplicity 1
 C         0.010767        -0.076502         0.334071
 C         1.491462         0.010378        -0.011390
 C         2.037789        -0.978687        -0.987128
 C         3.175267        -1.331056        -0.033812
 O         3.873169        -2.532840         0.193858
 C         3.804737         0.006338         0.342570
 O         3.547541         1.195885        -0.350529
 C         2.115860         1.300013        -0.415942
 C         2.565629        -0.524698         1.100072
 H        -0.275779         0.634001         1.179232
 H        -0.572751         0.290337        -0.601165
 H        -0.287767        -1.038650         0.657050
 H         1.343022        -1.852992        -1.097521
 H         2.356507        -0.638561        -1.973923
 H         4.529589        -2.569005        -0.507506
 H         4.738817        -0.097618         0.819561
 H         1.817259         2.201564         0.321747
 H         1.826069         1.505487        -1.449918
 H         2.510425        -0.719093         2.181847
