19
Iteration:   787
 C         0.130574         0.072087         0.310287
 C         1.555583        -0.039978        -0.032390
 C         2.033394        -1.091935        -0.980990
 C         3.152332        -1.368516         0.024071
 O         3.914939        -2.496781        -0.054731
 C         3.683762        -0.061028         0.474060
 O         3.553296         1.173167        -0.252478
 C         2.128414         1.320644        -0.514345
 C         2.474389        -0.526441         1.136940
 H        -0.150817         1.057359         0.963252
 H        -0.505432         0.307878        -0.538792
 H        -0.272953        -0.830238         0.885612
 H         1.184817        -1.882791        -0.999798
 H         2.329957        -0.835970        -1.983054
 H         4.579847        -2.342888         0.707131
 H         4.590910        -0.160426         1.031764
 H         1.750457         2.272014         0.113178
 H         1.968960         1.436387        -1.552847
 H         2.268405        -0.314677         2.229677
