19
Iteration:  1738charge 0 multiplicity 1
 C         0.033910         0.241500         0.349406
 C         1.454924         0.006461        -0.063272
 C         1.898439        -1.212652        -0.850353
 C         3.229121        -1.349739        -0.027414
 O         4.130586        -2.438706        -0.015859
 C         3.732576        -0.048669         0.468756
 O         3.525799         1.217363        -0.116381
 C         2.160884         1.261540        -0.647311
 C         2.431649        -0.588480         1.084347
 H        -0.038738         1.062875         1.115639
 H        -0.558819         0.343619        -0.480139
 H        -0.266803        -0.724591         0.841360
 H         1.259482        -2.141458        -0.446767
 H         1.868215        -1.231109        -1.944867
 H         4.410583        -2.663258        -0.883928
 H         4.563786        -0.159416         1.057581
 H         1.608591         2.116381        -0.342524
 H         2.312467         1.050346        -1.781435
 H         2.183959        -0.631239         2.176867
