19
Iteration:  4059charge 0 multiplicity 1
 C         0.062359        -0.002326         0.367144
 C         1.544135         0.054158         0.038285
 C         1.963632        -1.172391        -0.935247
 C         3.170962        -1.299960        -0.009389
 O         3.879053        -2.564253         0.132642
 C         3.808394        -0.020280         0.305728
 O         3.522193         1.168099        -0.443540
 C         2.096687         1.389991        -0.365335
 C         2.601321        -0.471237         1.081032
 H        -0.283493         0.741178         1.045218
 H        -0.566530         0.238310        -0.540818
 H        -0.078345        -1.141297         0.601952
 H         1.120182        -2.028482        -0.760350
 H         1.971469        -1.065932        -1.999379
 H         4.798780        -2.290705        -0.154094
 H         4.685425         0.039299         0.863387
 H         1.755561         2.146751         0.352843
 H         1.683756         1.721190        -1.394624
 H         2.659678        -0.565130         2.130955
