19
Iteration:   980
 C        -0.046072         0.176438         0.278230
 C         1.435762        -0.012968        -0.070390
 C         1.938441        -1.244949        -0.925642
 C         3.150286        -1.304792         0.015311
 O         3.982567        -2.389757        -0.125386
 C         3.773120        -0.064233         0.495572
 O         3.642659         1.052506        -0.331194
 C         2.221910         1.274523        -0.368638
 C         2.467655        -0.475627         1.169290
 H        -0.175073         0.807121         1.076102
 H        -0.635950         0.630422        -0.624113
 H        -0.486076        -0.797307         0.325061
 H         1.350333        -2.139165        -0.884154
 H         2.228391        -0.994815        -1.979847
 H         4.749514        -2.238593         0.477220
 H         4.553497        -0.133561         1.248563
 H         2.080986         1.995707         0.497167
 H         1.852186         1.817480        -1.352879
 H         2.324290        -0.543214         2.345603
