19
Iteration:  2907charge 0 multiplicity 1
 C         0.021000         0.077469         0.395217
 C         1.532438         0.007661         0.067119
 C         2.037224        -1.189487        -0.890471
 C         3.185010        -1.321302         0.044893
 O         4.034169        -2.489490        -0.037031
 C         3.764121         0.000323         0.408411
 O         3.531951         1.213559        -0.331904
 C         2.054582         1.255943        -0.566982
 C         2.551037        -0.472429         1.115244
 H        -0.072134         0.816316         1.143707
 H        -0.646987         0.296755        -0.596450
 H        -0.434600        -0.852370         0.736792
 H         1.383624        -2.014179        -0.717760
 H         2.213421        -1.012178        -2.052810
 H         3.316155        -3.106589         0.267256
 H         4.712128        -0.061563         0.867887
 H         1.648319         2.241213        -0.147366
 H         1.811641         1.394256        -1.655944
 H         2.414150        -0.387548         2.134118
