19
Iteration:  3994
 C         0.146276        -0.118193         0.466962
 C         1.546380         0.025842        -0.064650
 C         2.028340        -1.094616        -1.016481
 C         3.228967        -1.318899         0.009587
 O         3.898450        -2.543655         0.145218
 C         3.755782         0.014233         0.395924
 O         3.520963         1.147732        -0.514646
 C         2.093833         1.440950        -0.372018
 C         2.467953        -0.391216         1.109138
 H        -0.091243         0.702316         1.178214
 H        -0.613550         0.134686        -0.301899
 H         0.057169        -1.230732         0.921357
 H         1.322675        -2.000842        -0.846971
 H         2.322268        -1.000894        -2.053160
 H         3.347454        -3.047907        -0.415167
 H         4.697797         0.021896         0.912981
 H         1.901273         2.202121         0.386337
 H         1.896312         1.716090        -1.374817
 H         2.379117        -0.660266         2.116255
