19
Iteration:  2224charge 0 multiplicity 1
 C         0.096667        -0.121816         0.356629
 C         1.503147        -0.008123        -0.120660
 C         2.113970        -1.116903        -1.031011
 C         3.236970        -1.327867        -0.033103
 O         3.718120        -2.604329         0.142621
 C         3.808234         0.051847         0.417266
 O         3.528374         1.267495        -0.276453
 C         2.061758         1.411801        -0.374706
 C         2.583167        -0.455396         1.028917
 H        -0.049514         0.649505         1.080100
 H        -0.680356         0.172284        -0.458123
 H        -0.167839        -1.059316         0.833060
 H         1.483033        -2.034296        -1.136049
 H         2.509391        -0.790392        -2.060517
 H         4.582486        -2.740954        -0.220250
 H         4.874132        -0.011768         0.942774
 H         1.695053         1.973804         0.487202
 H         1.837370         1.734350        -1.369609
 H         2.255188        -0.510435         2.082451
