19
Iteration:  1433
 C         0.118062        -0.107490         0.336127
 C         1.550376         0.095092         0.037415
 C         2.052866        -1.033319        -1.103609
 C         3.150585        -1.325925        -0.080614
 O         3.824687        -2.600136         0.192632
 C         3.751737        -0.019076         0.422919
 O         3.572161         1.138269        -0.387477
 C         2.135559         1.458989        -0.374228
 C         2.463341        -0.477956         1.074856
 H        -0.468246         0.324273         1.238990
 H        -0.416878         0.127260        -0.521625
 H        -0.000381        -1.173213         0.600344
 H         1.234415        -1.889975        -1.032250
 H         2.209392        -0.826240        -2.129784
 H         4.809840        -2.443276        -0.037229
 H         4.689683         0.089356         0.943128
 H         2.012972         2.281020         0.518275
 H         1.783089         1.766184        -1.284331
 H         2.259860        -0.756028         2.025444
