19
Iteration:   185charge 0 multiplicity 1
 C         0.169196        -0.116932         0.357784
 C         1.517010         0.092452        -0.140095
 C         2.025204        -1.085823        -1.048097
 C         3.166784        -1.342132         0.009949
 O         3.762772        -2.624683         0.188915
 C         3.754632        -0.010513         0.417506
 O         3.573810         1.227101        -0.279494
 C         2.181855         1.451457        -0.415952
 C         2.483398        -0.508724         1.026946
 H        -0.096011         0.628174         1.269629
 H        -0.637132        -0.096694        -0.455229
 H         0.159029        -1.097635         0.798511
 H         1.368181        -1.916972        -0.969969
 H         2.203220        -0.832440        -2.203540
 H         4.513087        -2.562463        -0.507960
 H         4.747592         0.014101         1.002232
 H         1.650607         2.239379         0.268596
 H         1.984146         1.955701        -1.396330
 H         2.277344        -0.535125         2.109074
