19
Iteration:  2798
 C         0.023034         0.034373         0.460540
 C         1.533966        -0.054972         0.009083
 C         2.031857        -1.223343        -0.925890
 C         3.206197        -1.317839        -0.057706
 O         3.915697        -2.514227         0.036327
 C         3.787971         0.108785         0.488075
 O         3.579923         1.311597        -0.306674
 C         2.101502         1.253047        -0.574189
 C         2.539514        -0.485393         1.058403
 H        -0.126633         0.724923         1.249911
 H        -0.826101         0.178550        -0.333357
 H        -0.190865        -0.920190         0.878137
 H         1.385906        -2.035284        -0.755982
 H         2.107619        -0.968002        -2.064777
 H         3.404650        -3.236438        -0.443323
 H         4.832576         0.092673         0.927107
 H         1.648069         2.172801        -0.119821
 H         2.074191         1.357859        -1.710739
 H         2.218438        -0.697724         2.159046
