19
Iteration:  3497charge 0 multiplicity 1
 C         0.020400        -0.031186         0.354486
 C         1.512299        -0.009466        -0.053424
 C         1.935330        -1.227223        -0.819015
 C         3.240599        -1.357013        -0.017261
 O         3.939093        -2.486942         0.026653
 C         3.783202         0.004944         0.410102
 O         3.579985         1.247207        -0.385717
 C         2.153666         1.352268        -0.452046
 C         2.556122        -0.402140         1.096313
 H        -0.186426         0.616530         1.134111
 H        -0.582779         0.264603        -0.638213
 H        -0.271800        -1.052331         0.563662
 H         1.274812        -2.161436        -0.851353
 H         2.128311        -1.042880        -1.885775
 H         3.276574        -3.124206         0.196095
 H         4.803900         0.128155         0.865403
 H         1.732156         2.094736         0.291602
 H         1.832943         1.661536        -1.413532
 H         2.415010        -0.311576         2.207485
