19
Iteration:  1809
 C        -0.046846         0.053313         0.318830
 C         1.476100         0.035502         0.011862
 C         1.968331        -1.235199        -0.931810
 C         3.222333        -1.358406        -0.018397
 O         3.943044        -2.574197        -0.013844
 C         3.788211         0.031818         0.402062
 O         3.607657         1.258315        -0.295091
 C         2.124817         1.352639        -0.478861
 C         2.520490        -0.492916         1.116457
 H        -0.315907         0.624121         1.181176
 H        -0.684101         0.333045        -0.626500
 H        -0.287770        -0.966059         0.569061
 H         1.397437        -2.126575        -0.800396
 H         2.092412        -1.066637        -2.052166
 H         4.579391        -2.427012         0.661858
 H         4.793323        -0.039711         1.030186
 H         1.798323         2.113077         0.234344
 H         1.868740         1.452240        -1.569760
 H         2.444638        -0.288714         2.225822
