19
Iteration:  2851charge 0 multiplicity 1
 C        -0.008386        -0.150252         0.318309
 C         1.521175         0.023974         0.106302
 C         2.065895        -1.045689        -1.074294
 C         3.163560        -1.320656        -0.013297
 O         3.941893        -2.486844         0.302773
 C         3.781488        -0.010014         0.277315
 O         3.467247         1.076450        -0.599589
 C         2.152022         1.461359        -0.262609
 C         2.594293        -0.461566         1.101929
 H        -0.296583         0.443767         1.129919
 H        -0.760213         0.216323        -0.588409
 H        -0.223368        -1.147634         0.701826
 H         1.420283        -1.850701        -1.246103
 H         2.296886        -0.387395        -2.060755
 H         3.509153        -3.126754        -0.356832
 H         4.732724         0.160274         0.842881
 H         2.354273         2.042555         0.736782
 H         1.854273         2.149265        -1.100531
 H         2.464946        -0.707301         2.203132
