19
Iteration:  4563charge 0 multiplicity 1
 C         0.103392        -0.099154         0.506224
 C         1.478984         0.012630         0.008481
 C         2.148515        -1.109531        -1.092823
 C         3.205800        -1.269518        -0.020670
 O         3.818591        -2.506707         0.165791
 C         3.789022         0.052538         0.432620
 O         3.529648         1.158378        -0.490754
 C         2.145210         1.387922        -0.411617
 C         2.536849        -0.447378         1.032595
 H         0.071851         0.446577         1.452818
 H        -0.688090         0.009264        -0.294746
 H        -0.176422        -1.211223         0.756921
 H         1.402464        -1.987185        -0.978465
 H         2.313753        -0.957063        -2.189198
 H         3.244755        -3.078996        -0.430222
 H         4.712626         0.110263         1.015803
 H         1.883956         2.023813         0.457239
 H         1.664805         1.833784        -1.194661
 H         2.248211        -0.743718         2.099450
