19
Iteration:  2926
 C         0.047605         0.171481         0.513463
 C         1.422117        -0.028503        -0.047087
 C         1.902177        -1.217989        -0.885688
 C         3.216927        -1.337861        -0.102075
 O         4.105344        -2.379513         0.001139
 C         3.737711        -0.001389         0.462245
 O         3.513935         1.196209        -0.250554
 C         2.179939         1.183003        -0.633356
 C         2.499659        -0.503069         1.095728
 H         0.013060         1.099467         1.065782
 H        -0.721283         0.207486        -0.393126
 H        -0.373093        -0.704316         1.040395
 H         1.378460        -2.158943        -0.921772
 H         2.054488        -0.852054        -1.988236
 H         3.779061        -3.157371         0.464829
 H         4.728241         0.025204         0.934184
 H         1.804330         2.192200        -0.465082
 H         2.199821         1.200191        -1.734421
 H         2.298480        -0.905727         2.107835
