19
Iteration:  3516
 C         0.080828         0.096316         0.393323
 C         1.484489        -0.026955        -0.006162
 C         1.940361        -1.237151        -0.922011
 C         3.156281        -1.311687        -0.033066
 O         4.055430        -2.429849         0.019760
 C         3.742866         0.006578         0.469232
 O         3.573721         1.211758        -0.315774
 C         2.109903         1.299132        -0.553943
 C         2.474727        -0.471370         1.077269
 H        -0.074521         1.068975         1.138582
 H        -0.521909         0.125518        -0.529592
 H        -0.151165        -0.721613         1.039994
 H         1.474452        -2.234053        -0.459917
 H         1.892266        -1.447425        -2.017923
 H         3.531453        -3.236335        -0.054352
 H         4.793563        -0.065073         0.956518
 H         1.918409         2.266523         0.018264
 H         2.049896         1.447672        -1.604170
 H         2.291157        -0.768685         2.107507
