19
Iteration:  4659charge 0 multiplicity 1
 C        -0.050944         0.148168         0.381609
 C         1.451521        -0.024858         0.013032
 C         2.022134        -1.171221        -0.907054
 C         3.243678        -1.296599        -0.008275
 O         3.976283        -2.537790        -0.071494
 C         3.763280         0.027051         0.445564
 O         3.565385         1.139416        -0.347409
 C         2.125213         1.279471        -0.496676
 C         2.493288        -0.510643         1.177628
 H        -0.088191         1.041685         0.965160
 H        -0.649484         0.277480        -0.580112
 H        -0.471655        -0.793674         0.945144
 H         1.445318        -2.205615        -0.878834
 H         2.302157        -0.932759        -1.929337
 H         4.875546        -2.259125        -0.095059
 H         4.621146         0.038371         1.105323
 H         1.695984         2.084285         0.191265
 H         1.759143         1.696281        -1.594364
 H         2.402642        -0.799720         2.257354
