19
Iteration:  2526charge 0 multiplicity 1
 C        -0.022026         0.123607         0.355632
 C         1.465817        -0.048354         0.086792
 C         1.981318        -1.250457        -0.867858
 C         3.237527        -1.317740        -0.037852
 O         4.021843        -2.454939        -0.028701
 C         3.759570         0.006843         0.472219
 O         3.526768         1.241204        -0.231675
 C         2.167016         1.264771        -0.593341
 C         2.551908        -0.460866         1.088541
 H        -0.176646         0.982315         1.142183
 H        -0.519416         0.436694        -0.565947
 H        -0.462428        -0.747906         0.769141
 H         1.219956        -2.144470        -0.682685
 H         2.218870        -1.252341        -1.955507
 H         3.627185        -2.887520        -0.810373
 H         4.720986        -0.157861         0.878052
 H         1.870353         2.251850        -0.119196
 H         1.892380         1.105244        -1.612505
 H         2.283429        -0.778078         2.038824
