19
Iteration:   408charge 0 multiplicity 1
 C         0.053930         0.192455         0.240886
 C         1.519158         0.013902         0.027994
 C         2.118945        -1.174427        -0.948963
 C         3.188144        -1.382487         0.067040
 O         3.916462        -2.587971        -0.017171
 C         3.706793         0.010891         0.475567
 O         3.515016         1.146005        -0.379014
 C         2.049947         1.318619        -0.386150
 C         2.509864        -0.470637         1.117115
 H        -0.115967         0.772959         1.085080
 H        -0.342824         0.629691        -0.621050
 H        -0.357405        -0.921338         0.416727
 H         1.451160        -2.098104        -1.116092
 H         2.514956        -0.778002        -1.871954
 H         4.901415        -2.403975        -0.126239
 H         4.671035        -0.102398         1.060306
 H         1.710322         2.012929         0.493637
 H         1.762772         1.686227        -1.309627
 H         2.271177        -0.637426         2.162182
