19
Iteration:  1810charge 0 multiplicity 1
 C        -0.051175         0.044995         0.310131
 C         1.473928         0.035225         0.021395
 C         1.971702        -1.235596        -0.927325
 C         3.216409        -1.357025        -0.013140
 O         3.936734        -2.571700        -0.011858
 C         3.795983         0.034728         0.400909
 O         3.611944         1.256797        -0.303074
 C         2.127622         1.355049        -0.476541
 C         2.521178        -0.494799         1.108102
 H        -0.266277         0.608703         1.167396
 H        -0.704234         0.337838        -0.626119
 H        -0.288621        -1.014295         0.565766
 H         1.421907        -2.091799        -0.819832
 H         2.095281        -1.057742        -2.040561
 H         4.568830        -2.448354         0.666596
 H         4.774767        -0.045462         1.014095
 H         1.780073         2.123581         0.263614
 H         1.855980         1.486274        -1.506730
 H         2.454523        -0.256767         2.224230
