19
Iteration:  2537charge 0 multiplicity 1
 C         0.012884         0.130995         0.322313
 C         1.518472        -0.005498         0.014216
 C         1.927747        -1.284546        -0.786424
 C         3.178902        -1.334605        -0.015417
 O         4.064577        -2.431574        -0.103096
 C         3.730986         0.036773         0.463239
 O         3.566378         1.185144        -0.250110
 C         2.151331         1.240609        -0.560803
 C         2.498366        -0.492119         1.189580
 H        -0.205645         0.966176         1.119911
 H        -0.451379         0.475929        -0.608245
 H        -0.522784        -0.752613         0.543680
 H         1.202047        -2.158672        -0.472771
 H         1.880347        -1.085151        -1.869336
 H         4.106804        -2.895980        -0.908555
 H         4.692802         0.052061         0.878500
 H         1.588204         2.166040        -0.198175
 H         2.149308         1.400841        -1.632755
 H         2.386927        -0.529573         2.242688
