19
Iteration:  2928charge 0 multiplicity 1
 C         0.050654         0.176124         0.526477
 C         1.422664        -0.026113        -0.044563
 C         1.889146        -1.236308        -0.886147
 C         3.203369        -1.327747        -0.105574
 O         4.124229        -2.376757         0.002949
 C         3.721873        -0.000191         0.480928
 O         3.519158         1.196188        -0.246975
 C         2.186286         1.181951        -0.638878
 C         2.507508        -0.515676         1.080692
 H         0.038370         1.085685         1.050898
 H        -0.732299         0.198171        -0.431350
 H        -0.378791        -0.660443         1.061779
 H         1.386594        -2.155663        -0.924062
 H         2.052121        -0.838036        -2.020471
 H         3.717087        -3.090547         0.474973
 H         4.690869        -0.014000         0.902533
 H         1.796058         2.213104        -0.484945
 H         2.209653         1.210721        -1.747541
 H         2.292782        -0.883867         2.027375
