19
Iteration:  2638charge 0 multiplicity 1
 C         0.107132        -0.307852         0.478936
 C         1.539702         0.000274        -0.025450
 C         2.093012        -1.009269        -1.030958
 C         3.114575        -1.298750        -0.036556
 O         3.700923        -2.619686         0.163344
 C         3.847944         0.104703         0.282834
 O         3.593833         1.225985        -0.466014
 C         2.105102         1.415953        -0.392344
 C         2.596497        -0.349155         1.030596
 H        -0.259615         0.369053         1.406777
 H        -0.573945        -0.220439        -0.286575
 H         0.087110        -1.384527         0.814574
 H         1.490626        -2.029916        -1.139971
 H         2.397117        -0.651127        -2.017597
 H         3.742619        -2.918397         1.123914
 H         4.779800         0.138870         0.910835
 H         2.037735         2.177649         0.517965
 H         1.682821         1.755910        -1.310284
 H         2.187992        -0.409682         2.082045
