19
Iteration:  3821
 C         0.135983        -0.120007         0.383783
 C         1.598253        -0.017148        -0.025472
 C         2.100883        -1.074440        -1.048424
 C         3.245264        -1.348840        -0.017954
 O         3.759956        -2.646417         0.189798
 C         3.807484         0.112455         0.253242
 O         3.471708         1.223534        -0.459498
 C         2.065980         1.423198        -0.276396
 C         2.604915        -0.437192         1.035093
 H        -0.124675         0.712553         1.245393
 H        -0.526383        -0.088556        -0.445967
 H        -0.080157        -1.052540         0.945858
 H         1.344258        -1.826733        -1.167139
 H         2.201272        -0.872104        -2.233591
 H         3.297189        -3.129555         0.945292
 H         4.713810         0.259590         0.896451
 H         1.852712         2.119889         0.532671
 H         1.708260         1.987823        -1.178436
 H         2.342865        -0.606731         2.075786
