19
Iteration:  1023charge 0 multiplicity 1
 C         0.077358         0.103920         0.296984
 C         1.529292         0.017593         0.058863
 C         2.060762        -1.040613        -0.993620
 C         3.227156        -1.350700        -0.025135
 O         3.835622        -2.652859         0.046455
 C         3.730685         0.038305         0.494906
 O         3.499626         1.203153        -0.239991
 C         2.126096         1.336096        -0.504338
 C         2.543916        -0.593653         1.069059
 H        -0.092375         0.884215         0.984660
 H        -0.564054         0.455767        -0.655746
 H        -0.216497        -0.879897         0.568356
 H         1.428730        -1.851755        -0.989350
 H         2.248971        -0.583977        -2.029358
 H         4.702584        -2.600031        -0.343005
 H         4.617296         0.196443         1.121364
 H         1.579090         2.133752         0.051747
 H         1.997586         1.434909        -1.586402
 H         2.523438        -0.937334         2.178710
