19
Iteration:  1478charge 0 multiplicity 1
 C         0.107751        -0.217180         0.291035
 C         1.605320         0.006651         0.051026
 C         2.223182        -0.995385        -1.124662
 C         3.180798        -1.294345        -0.050886
 O         3.615603        -2.606863         0.284615
 C         3.842164         0.066313         0.393142
 O         3.496702         1.217210        -0.497046
 C         2.064156         1.408730        -0.214823
 C         2.618863        -0.447908         1.039802
 H        -0.362931         0.439671         1.120618
 H        -0.399627         0.067460        -0.593229
 H        -0.176046        -1.158450         0.680254
 H         1.505774        -1.847715        -1.440986
 H         2.702665        -0.525664        -1.955995
 H         3.528063        -3.200816        -0.542290
 H         4.856002         0.003018         0.921993
 H         1.848688         2.261219         0.624932
 H         1.706897         1.738829        -1.171352
 H         2.419638        -0.668549         2.100942
