19
Iteration:   284charge 0 multiplicity 1
 C        -0.013999         0.022876         0.273186
 C         1.485388        -0.002051         0.034073
 C         2.007988        -1.118069        -1.014967
 C         3.096825        -1.316478        -0.045954
 O         3.895040        -2.527645         0.102205
 C         3.808251        -0.065750         0.409989
 O         3.591163         1.144140        -0.339405
 C         2.197958         1.405887        -0.339560
 C         2.527387        -0.489757         1.115497
 H        -0.324819         0.806519         1.052932
 H        -0.530808         0.331020        -0.662830
 H        -0.292966        -0.991931         0.404983
 H         1.374333        -1.956529        -0.928635
 H         2.219772        -0.912777        -2.126753
 H         4.831275        -2.265719        -0.114877
 H         4.797835        -0.141177         0.804023
 H         1.816533         2.183333         0.396890
 H         1.842819         1.674020        -1.391589
 H         2.304683        -0.640274         2.136367
