19
Iteration:  2089
 C         0.102093        -0.183995         0.314722
 C         1.584733         0.077341         0.064198
 C         2.071587        -1.081003        -1.044971
 C         3.175767        -1.331401        -0.041785
 O         3.747938        -2.527389         0.218866
 C         3.792038         0.009396         0.413044
 O         3.516146         1.185385        -0.371048
 C         2.087676         1.469256        -0.414739
 C         2.614599        -0.475947         1.055391
 H        -0.329977         0.297706         1.302043
 H        -0.506967        -0.008872        -0.500096
 H         0.076364        -1.261458         0.474945
 H         1.187515        -1.908519        -1.171498
 H         2.369804        -0.679056        -1.987475
 H         4.140703        -2.998194        -0.593031
 H         4.794343         0.058247         0.765986
 H         1.735547         2.348015         0.299400
 H         1.861587         1.721145        -1.418591
 H         2.437924        -0.701210         2.078894
