19
Iteration:  3782
 C        -0.025876        -0.007711         0.437254
 C         1.447691         0.016150         0.050781
 C         1.976165        -1.080663        -0.997821
 C         3.156762        -1.326742        -0.020599
 O         4.070717        -2.427180         0.095811
 C         3.761113        -0.028073         0.352283
 O         3.624548         1.114231        -0.400560
 C         2.133016         1.314317        -0.476801
 C         2.520855        -0.504592         1.102377
 H        -0.261470         0.720690         1.110322
 H        -0.633951         0.421327        -0.440348
 H        -0.419427        -1.000022         0.610557
 H         1.153425        -1.885328        -1.016721
 H         2.215466        -0.753834        -1.935533
 H         3.498813        -3.138367         0.286799
 H         4.757695         0.067074         0.897093
 H         1.938336         2.152376         0.297266
 H         1.785756         1.595687        -1.529238
 H         2.354605        -0.569949         2.181291
