19
Iteration:   583
 C        -0.015707         0.074270         0.292534
 C         1.562174         0.021173        -0.067385
 C         1.991684        -1.175607        -0.968943
 C         3.167626        -1.384642        -0.046896
 O         3.888454        -2.543908         0.104282
 C         3.766937        -0.005078         0.440738
 O         3.618754         1.208931        -0.264420
 C         2.147714         1.374923        -0.401770
 C         2.497802        -0.490294         1.095734
 H        -0.185347         0.791345         1.054593
 H        -0.473040         0.366758        -0.607532
 H        -0.354398        -1.035902         0.516076
 H         1.310145        -2.077681        -1.010202
 H         2.163709        -0.883109        -1.979286
 H         4.587264        -2.668209        -0.627689
 H         4.700265        -0.168351         0.914811
 H         1.846587         2.006416         0.419371
 H         1.817959         1.850056        -1.432093
 H         2.191616        -0.604009         2.150838
