19
Iteration:   772
 C         0.049193        -0.037629         0.341721
 C         1.514642         0.100360         0.024756
 C         1.902839        -1.131853        -0.968801
 C         3.105344        -1.338002        -0.071214
 O         3.981133        -2.506020         0.003719
 C         3.721315        -0.037511         0.472297
 O         3.637861         1.170175        -0.247182
 C         2.250206         1.370579        -0.507610
 C         2.416873        -0.474059         1.086134
 H        -0.295900         0.678304         0.992665
 H        -0.658033        -0.098652        -0.525766
 H        -0.023863        -0.997213         0.720838
 H         1.232207        -1.908369        -0.923469
 H         2.076064        -0.826562        -2.023536
 H         4.488779        -2.539335         0.822654
 H         4.726746        -0.123464         0.960734
 H         1.892900         2.269467        -0.068437
 H         2.140234         1.493660        -1.671093
 H         2.131776        -0.799317         2.040470
