19
Iteration:  1148charge 0 multiplicity 1
 C         0.039093         0.091825         0.280650
 C         1.510726        -0.002224        -0.057747
 C         1.878824        -1.191990        -0.931557
 C         3.191735        -1.386912        -0.036739
 O         3.970752        -2.540946         0.044677
 C         3.759156        -0.080410         0.401280
 O         3.599025         1.251949        -0.198570
 C         2.183469         1.420655        -0.436892
 C         2.460347        -0.534646         1.059790
 H        -0.118980         0.727442         1.156709
 H        -0.465212         0.398521        -0.536871
 H        -0.317033        -0.924592         0.572346
 H         1.234996        -2.132631        -0.731553
 H         1.912069        -1.052121        -1.934576
 H         4.891050        -2.213870        -0.015044
 H         4.747240        -0.174047         0.867962
 H         1.777246         2.234479         0.143013
 H         1.918159         1.730315        -1.533013
 H         2.162671        -0.572958         2.088053
