19
Iteration:  1830charge 0 multiplicity 1
 C         0.030190        -0.119539         0.280162
 C         1.522149        -0.004446        -0.022165
 C         2.072135        -1.092454        -0.907742
 C         3.223658        -1.311603         0.040477
 O         3.795422        -2.549890         0.035803
 C         3.775940         0.013076         0.346111
 O         3.543885         1.153943        -0.472617
 C         2.129802         1.414759        -0.297795
 C         2.555644        -0.388018         1.136178
 H        -0.391691         0.381440         1.138368
 H        -0.418356         0.315820        -0.692759
 H        -0.358590        -1.098766         0.315979
 H         1.371960        -1.954384        -0.885655
 H         2.349820        -0.853102        -1.992665
 H         4.411130        -2.597654         0.817532
 H         4.805611         0.067166         0.929445
 H         2.027160         2.019385         0.573270
 H         1.835256         1.818044        -1.350009
 H         2.358205        -0.709074         2.182024
