19
Iteration:  2123
 C        -0.042137         0.187366         0.356728
 C         1.450584        -0.080741         0.037328
 C         2.050637        -1.194455        -1.007651
 C         3.253287        -1.359638        -0.058542
 O         4.017379        -2.514043         0.063653
 C         3.755564         0.020533         0.481458
 O         3.548027         1.134055        -0.384486
 C         2.088594         1.337611        -0.391222
 C         2.487424        -0.541889         1.074011
 H        -0.311032         1.057926         1.095109
 H        -0.545080         0.410210        -0.562943
 H        -0.521767        -0.653700         0.762158
 H         1.287830        -2.097758        -1.116609
 H         2.176303        -0.777527        -1.988290
 H         4.967293        -2.217586        -0.134909
 H         4.615751         0.010434         1.044345
 H         1.703271         2.145560         0.318751
 H         1.879223         1.657280        -1.368910
 H         2.314260        -0.695409         2.136216
