19
Iteration:  3006charge 0 multiplicity 1
 C        -0.022698        -0.025306         0.281491
 C         1.488361        -0.002318         0.109151
 C         2.050995        -1.105806        -0.830952
 C         3.256989        -1.293342         0.059424
 O         3.943790        -2.492894        -0.048088
 C         3.825115         0.081283         0.412629
 O         3.567285         1.097754        -0.444700
 C         2.032074         1.313997        -0.493876
 C         2.550051        -0.456389         1.192954
 H        -0.363811         0.499016         1.180987
 H        -0.431088         0.519898        -0.695810
 H        -0.342017        -1.050488         0.441049
 H         1.346951        -1.893195        -0.731932
 H         2.223413        -0.838005        -1.973527
 H         3.308655        -3.220200         0.039503
 H         4.842989         0.238790         0.840652
 H         1.997758         2.127515         0.222195
 H         1.784521         1.554163        -1.535421
 H         2.429374        -0.565524         2.282238
