19
Iteration:  4308charge 0 multiplicity 1
 C         0.002767         0.175683         0.419346
 C         1.423102        -0.067099         0.020016
 C         2.058593        -1.208227        -0.880862
 C         3.212447        -1.311344         0.007205
 O         3.990057        -2.515112        -0.083173
 C         3.735721         0.031739         0.491732
 O         3.580479         1.094176        -0.425865
 C         2.091670         1.271692        -0.482708
 C         2.492296        -0.408627         1.160051
 H         0.083790         0.941635         1.199137
 H        -0.651529         0.256454        -0.551027
 H        -0.542565        -0.761355         0.926723
 H         1.296114        -2.080013        -0.953117
 H         2.387104        -0.927354        -1.930400
 H         4.904131        -2.239032        -0.465394
 H         4.622740        -0.031543         1.127264
 H         1.661658         2.117661         0.112657
 H         1.758149         1.456483        -1.448692
 H         2.291028        -0.614237         2.263550
