19
Iteration:  4451
 C         0.065626         0.036449         0.456177
 C         1.486990         0.025257         0.059620
 C         1.949308        -1.062872        -0.960708
 C         3.131550        -1.319034        -0.040767
 O         3.987811        -2.511882         0.037426
 C         3.775123        -0.033732         0.368818
 O         3.559480         1.106616        -0.437778
 C         2.091342         1.285582        -0.453861
 C         2.533819        -0.457022         1.099669
 H        -0.189639         0.773600         1.203406
 H        -0.663423         0.170447        -0.442981
 H        -0.239884        -1.078395         0.724199
 H         1.142915        -1.936996        -0.866715
 H         2.182377        -0.818649        -1.983716
 H         4.828240        -2.302802         0.546967
 H         4.716769        -0.057609         0.974195
 H         1.996478         2.272177         0.218092
 H         1.826930         1.600410        -1.479587
 H         2.374308        -0.642717         2.114328
