19
Iteration:  1270charge 0 multiplicity 1
 C        -0.007910        -0.163259         0.274903
 C         1.514948         0.042374        -0.022754
 C         2.091580        -0.912418        -1.101916
 C         3.182643        -1.366641        -0.128392
 O         3.799299        -2.526523         0.344939
 C         3.790780        -0.032321         0.342301
 O         3.571303         1.138689        -0.452003
 C         2.144446         1.477673        -0.159901
 C         2.542277        -0.527421         1.000982
 H        -0.246114         0.454504         1.197165
 H        -0.617407         0.070645        -0.521509
 H        -0.078858        -1.167462         0.621423
 H         1.302186        -1.709062        -1.376420
 H         2.413839        -0.494959        -1.997154
 H         4.380572        -2.964815        -0.242372
 H         4.710198        -0.069680         0.899947
 H         2.136032         2.045968         0.720939
 H         1.722729         1.989327        -1.134858
 H         2.375375        -0.968384         2.043090
