19
Iteration:  1965charge 0 multiplicity 1
 C         0.069100         0.257250         0.238323
 C         1.507330        -0.073309         0.039767
 C         1.915761        -1.279159        -0.836406
 C         3.189641        -1.351857         0.008871
 O         4.106152        -2.420604        -0.161646
 C         3.676081         0.003801         0.573980
 O         3.508722         1.112065        -0.266554
 C         2.144977         1.253491        -0.541317
 C         2.461851        -0.522967         1.186532
 H         0.027148         0.911471         1.019134
 H        -0.211377         0.798086        -0.661072
 H        -0.601740        -0.626590         0.516212
 H         1.274502        -2.011342        -0.451856
 H         1.867973        -1.257114        -2.010826
 H         4.972926        -1.971582        -0.450809
 H         4.569872         0.092619         1.174211
 H         1.853421         2.146832         0.088489
 H         1.806392         1.290937        -1.651571
 H         2.165618        -0.696438         2.200516
