19
Iteration:  3115charge 0 multiplicity 1
 C         0.059810         0.094679         0.384734
 C         1.467523        -0.052245         0.044640
 C         1.981280        -1.164644        -0.811732
 C         3.188396        -1.334099         0.056226
 O         4.049681        -2.519739        -0.164696
 C         3.767479        -0.011639         0.460133
 O         3.496312         1.227595        -0.278777
 C         2.139087         1.309010        -0.612816
 C         2.524731        -0.428042         1.132687
 H        -0.366189         0.687593         1.176427
 H        -0.543257         0.377189        -0.687546
 H        -0.227610        -0.930219         0.644687
 H         1.315462        -2.004563        -0.609231
 H         2.025359        -1.047266        -2.034256
 H         3.689399        -3.200157         0.378609
 H         4.759815        -0.093227         0.966202
 H         1.680939         2.243607        -0.138424
 H         2.087455         1.326132        -1.762927
 H         2.447688        -0.441108         2.270523
