19
Iteration:   716charge 0 multiplicity 1
 C         0.168149         0.036124         0.222783
 C         1.639927         0.010868         0.038002
 C         2.174777        -1.035665        -0.999122
 C         3.150180        -1.402612         0.065976
 O         3.786687        -2.681777         0.035491
 C         3.770473         0.033887         0.456007
 O         3.409938         1.192584        -0.426718
 C         2.008215         1.426457        -0.364375
 C         2.583249        -0.558939         1.115404
 H        -0.043083         0.708272         0.989331
 H        -0.384924         0.527944        -0.611276
 H        -0.483054        -0.749291         0.618708
 H         1.364190        -1.681202        -1.104364
 H         2.608346        -0.669746        -1.941976
 H         4.431189        -2.697110         0.846844
 H         4.803800         0.056392         0.911111
 H         1.650895         2.105673         0.350827
 H         1.702340         1.768449        -1.479611
 H         2.395800        -0.480673         2.215496
