19
Iteration:  1288
 C         0.076541        -0.067211         0.394812
 C         1.517186         0.005062        -0.091173
 C         2.187251        -0.976953        -1.149442
 C         3.188915        -1.335464         0.032281
 O         3.740445        -2.597198         0.212015
 C         3.815384         0.003834         0.376286
 O         3.508571         1.150693        -0.394292
 C         2.119674         1.367985        -0.281077
 C         2.472212        -0.497653         1.001413
 H        -0.169543         0.630059         1.170784
 H        -0.627805         0.070497        -0.506313
 H        -0.189342        -1.120634         0.866813
 H         1.609370        -1.892732        -1.547466
 H         2.674668        -0.425043        -2.008078
 H         4.516631        -2.513611        -0.303820
 H         4.789759         0.043634         0.923700
 H         1.866562         1.928073         0.710625
 H         1.753813         2.046999        -0.976824
 H         2.393559        -0.430734         2.146724
