19
Iteration:  2518
 C        -0.009363         0.118806         0.381541
 C         1.490848        -0.045856         0.052191
 C         2.000113        -1.187687        -0.947771
 C         3.243145        -1.272670        -0.041674
 O         3.986994        -2.496055         0.032521
 C         3.821403        -0.025840         0.420294
 O         3.540017         1.280691        -0.246765
 C         2.101575         1.266907        -0.562186
 C         2.518847        -0.522594         1.090423
 H        -0.180616         1.020565         1.173256
 H        -0.632483         0.312386        -0.421477
 H        -0.393567        -0.811692         0.902633
 H         1.548591        -2.270577        -0.743943
 H         2.126642        -0.999612        -2.024055
 H         3.490643        -3.118808        -0.492144
 H         4.691382        -0.058178         1.021808
 H         1.635756         2.232463        -0.269689
 H         2.042794         1.201126        -1.655185
 H         2.385283        -0.831904         2.184969
