19
Iteration:  1105
 C        -0.038820        -0.034986         0.226609
 C         1.501503        -0.046012         0.057551
 C         2.208168        -0.956718        -0.969611
 C         3.231192        -1.319142         0.016873
 O         3.728657        -2.576794         0.130280
 C         3.842756         0.070169         0.428114
 O         3.528279         1.123324        -0.429338
 C         2.141443         1.300602        -0.319794
 C         2.555320        -0.517786         1.112885
 H        -0.323057         0.672348         1.090216
 H        -0.502514         0.401696        -0.559584
 H        -0.537626        -0.953428         0.587271
 H         1.597949        -1.776011        -1.540270
 H         2.570836        -0.377548        -1.805705
 H         4.134961        -2.825876        -0.777886
 H         4.811359         0.116735         0.909092
 H         1.834431         2.061695         0.453961
 H         1.769952         1.736345        -1.371303
 H         2.368278        -0.567518         2.132374
