19
Iteration:  1823charge 0 multiplicity 1
 C        -0.007806        -0.095055         0.251103
 C         1.505625        -0.033791         0.008189
 C         2.038092        -1.141506        -0.872725
 C         3.197391        -1.324471         0.039527
 O         3.832551        -2.531915         0.019937
 C         3.792741         0.008123         0.358085
 O         3.594642         1.205576        -0.423499
 C         2.137146         1.391839        -0.349472
 C         2.544561        -0.421321         1.067559
 H        -0.276862         0.487430         1.125195
 H        -0.614123         0.409840        -0.540770
 H        -0.456172        -1.156515         0.458341
 H         1.376349        -1.934665        -0.818020
 H         2.319160        -0.859877        -1.889355
 H         4.502882        -2.691024         0.766210
 H         4.695467         0.038505         0.882361
 H         1.911741         2.198200         0.451909
 H         1.901778         1.821834        -1.243039
 H         2.447927        -0.505013         2.184257
