19
Iteration:  4545
 C         0.074590        -0.122744         0.481867
 C         1.503818         0.014930        -0.071613
 C         2.002078        -1.083747        -0.965535
 C         3.164022        -1.350851        -0.011873
 O         3.928559        -2.520040         0.125432
 C         3.753524        -0.009784         0.355605
 O         3.590555         1.166857        -0.438047
 C         2.092846         1.377690        -0.394358
 C         2.497669        -0.408857         1.075695
 H        -0.047909         0.633016         1.340732
 H        -0.712982         0.146988        -0.163676
 H        -0.112052        -1.056012         0.829693
 H         1.436505        -1.886563        -1.185715
 H         2.575127        -0.696087        -1.874636
 H         3.807386        -3.213723        -0.560778
 H         4.778457         0.068196         0.850883
 H         1.796531         2.234807         0.364719
 H         2.011846         1.820808        -1.409362
 H         2.236587        -0.207670         2.128608
