19
Iteration:  3333
 C         0.057806         0.182151         0.307290
 C         1.506455        -0.003589         0.002247
 C         1.896991        -1.326243        -0.770517
 C         3.172996        -1.396122        -0.035948
 O         4.203593        -2.352423        -0.075524
 C         3.661951        -0.085544         0.468428
 O         3.537648         1.143540        -0.323077
 C         2.124209         1.323742        -0.493432
 C         2.461411        -0.431687         1.145418
 H         0.100893         0.890350         1.047042
 H        -0.630381         0.643354        -0.537940
 H        -0.486252        -0.630097         0.744866
 H         1.244208        -2.055789        -0.579401
 H         1.940693        -1.191553        -1.818815
 H         3.796864        -3.263395        -0.247652
 H         4.752997        -0.213414         0.697888
 H         1.692148         2.144493         0.046971
 H         2.024246         1.474544        -1.692489
 H         2.271561        -0.411036         2.193389
