19
Iteration:  3993
 C         0.148494        -0.114893         0.472808
 C         1.547198         0.028593        -0.061128
 C         2.024568        -1.089905        -1.021889
 C         3.221567        -1.319130         0.014735
 O         3.904367        -2.543117         0.140995
 C         3.754559         0.012363         0.396221
 O         3.526844         1.152954        -0.511675
 C         2.088036         1.436257        -0.373345
 C         2.466011        -0.391856         1.109817
 H        -0.089482         0.669380         1.148124
 H        -0.610021         0.135523        -0.320854
 H         0.071791        -1.233815         0.891247
 H         1.302546        -2.034048        -0.842967
 H         2.284569        -1.034842        -2.039259
 H         3.350811        -3.086008        -0.402952
 H         4.719935         0.020893         0.938145
 H         1.915546         2.192924         0.342307
 H         1.905113         1.733495        -1.408854
 H         2.384953        -0.658138         2.133688
