19
Iteration:  2587charge 0 multiplicity 1
 C        -0.043480         0.173421         0.326703
 C         1.466087        -0.030355         0.035723
 C         2.002566        -1.179112        -0.898509
 C         3.218865        -1.338626        -0.001337
 O         3.994925        -2.470601         0.010283
 C         3.785412        -0.014827         0.449258
 O         3.522381         1.137022        -0.428556
 C         2.100184         1.261552        -0.436924
 C         2.540725        -0.540052         1.124283
 H        -0.059470         0.890291         1.055368
 H        -0.657513         0.567310        -0.571905
 H        -0.611639        -0.722450         0.730067
 H         1.359595        -2.032112        -0.830297
 H         2.074944        -0.776820        -1.938461
 H         5.000999        -2.373102         0.015938
 H         4.822297         0.019799         0.972480
 H         1.858032         2.033250         0.232595
 H         1.589005         1.543524        -1.407565
 H         2.638655        -0.608626         2.197348
