19
Iteration:  4504charge 0 multiplicity 1
 C        -0.036329         0.088480         0.296776
 C         1.504616        -0.099799         0.117046
 C         1.960375        -1.146571        -0.844728
 C         3.258246        -1.285983        -0.061584
 O         3.914956        -2.448954         0.078235
 C         3.841217         0.024630         0.409817
 O         3.527966         1.196752        -0.414120
 C         2.107817         1.282040        -0.436667
 C         2.614999        -0.565534         1.094832
 H        -0.188198         1.021873         0.895984
 H        -0.474010         0.469864        -0.643193
 H        -0.464761        -0.830586         0.856288
 H         1.337545        -2.106967        -0.665033
 H         1.851464        -0.836505        -1.876606
 H         4.141427        -2.805867        -0.848824
 H         4.851445        -0.060986         0.903333
 H         1.867628         2.050162         0.213289
 H         1.684370         1.469323        -1.513562
 H         2.436897        -0.706989         2.108576
