19
Iteration:  4217
 C         0.055091        -0.101684         0.512548
 C         1.555104         0.011790         0.040096
 C         2.116761        -0.966074        -1.026473
 C         3.197120        -1.353710        -0.035946
 O         3.811959        -2.569519         0.199079
 C         3.793409         0.136488         0.443760
 O         3.512410         1.098831        -0.526169
 C         2.089171         1.362547        -0.427537
 C         2.518150        -0.526242         1.029573
 H        -0.257113         0.713758         1.334839
 H        -0.569153         0.069020        -0.363125
 H        -0.234608        -1.068134         0.798770
 H         1.504987        -1.757069        -1.168323
 H         2.514957        -0.646540        -2.104621
 H         4.208375        -2.904821        -0.619517
 H         4.825515         0.235243         0.896652
 H         2.078588         2.215746         0.275098
 H         1.667246         1.722936        -1.350983
 H         2.306657        -0.616641         2.062208
