19
Iteration:  2187
 C        -0.056206        -0.002332         0.255463
 C         1.502377         0.036288         0.039584
 C         1.972719        -1.099888        -0.785494
 C         3.242939        -1.293322         0.004994
 O         3.924526        -2.488191        -0.128279
 C         3.812097        -0.054062         0.472006
 O         3.561022         1.166339        -0.252951
 C         2.114247         1.303874        -0.545095
 C         2.539022        -0.496392         1.178808
 H        -0.379841         0.749054         1.096878
 H        -0.465010         0.260093        -0.624630
 H        -0.431702        -1.017859         0.348953
 H         1.276488        -2.051623        -0.762919
 H         2.110463        -0.830516        -1.798367
 H         4.861281        -2.368768         0.206532
 H         4.728922        -0.038097         0.900212
 H         1.842989         2.291533        -0.346744
 H         2.034593         1.246884        -1.632502
 H         2.263585        -0.626522         2.229098
