19
Iteration:  4859charge 0 multiplicity 1
 C         0.003387         0.082849         0.400708
 C         1.476271        -0.003839         0.047575
 C         2.035592        -1.079440        -0.971491
 C         3.225194        -1.290160        -0.068628
 O         3.993526        -2.434441         0.040902
 C         3.723372         0.018642         0.487734
 O         3.596891         1.126420        -0.318394
 C         2.086452         1.251174        -0.552318
 C         2.545690        -0.564147         1.154095
 H        -0.146810         0.757753         1.269487
 H        -0.521606         0.456101        -0.410951
 H        -0.465605        -0.774116         0.603977
 H         1.504363        -2.017073        -0.923574
 H         2.019534        -0.858604        -2.060199
 H         3.543812        -3.239469        -0.413021
 H         4.718373        -0.024135         0.957287
 H         1.754619         2.172484        -0.138817
 H         1.926333         1.386975        -1.701458
 H         2.216335        -0.714477         2.247894
