19
Iteration:  1603charge 0 multiplicity 1
 C         0.095578         0.091367         0.336533
 C         1.530525        -0.037956         0.022007
 C         2.007626        -1.178273        -0.947671
 C         3.240844        -1.323162        -0.033044
 O         3.877738        -2.545396         0.050750
 C         3.741195         0.035369         0.492596
 O         3.500224         1.253966        -0.206425
 C         2.113030         1.334495        -0.547821
 C         2.548387        -0.563005         1.088168
 H        -0.127494         0.878047         0.937018
 H        -0.354805         0.351291        -0.652364
 H        -0.459281        -0.818520         0.588710
 H         1.480397        -2.066198        -0.813187
 H         2.111451        -0.984192        -2.086684
 H         4.236766        -2.751609        -0.848147
 H         4.747299         0.016596         0.946967
 H         1.738553         2.221831        -0.010946
 H         1.940587         1.394767        -1.640891
 H         2.448744        -0.689744         2.112094
