19
Iteration:  2029
 C         0.118865        -0.149802         0.356513
 C         1.607118         0.014860         0.035657
 C         2.153206        -0.904378        -1.074892
 C         3.237460        -1.353517        -0.044270
 O         3.712422        -2.577738         0.267944
 C         3.764531         0.046982         0.380397
 O         3.486810         1.176946        -0.457869
 C         2.060994         1.374268        -0.346424
 C         2.547985        -0.520097         1.061020
 H        -0.131821         0.591341         1.036152
 H        -0.674102        -0.037874        -0.509299
 H        -0.046416        -1.157340         0.815297
 H         1.454991        -1.657307        -1.252927
 H         2.505639        -0.479327        -2.087925
 H         4.394127        -2.834502        -0.350718
 H         4.750852         0.040287         0.811811
 H         1.866860         2.120745         0.342016
 H         1.518535         1.780438        -1.305604
 H         2.422772        -0.859456         2.087064
