19
Iteration:  3409charge 0 multiplicity 1
 C         0.120807        -0.016953         0.410498
 C         1.531992        -0.014446        -0.066904
 C         1.951886        -1.173626        -0.987289
 C         3.176569        -1.363758        -0.042944
 O         4.016530        -2.502048         0.116138
 C         3.717234        -0.026556         0.355571
 O         3.606321         1.270352        -0.311407
 C         2.072002         1.395850        -0.447174
 C         2.495745        -0.479829         1.063230
 H        -0.012052         0.785020         1.011641
 H        -0.670735         0.133126        -0.438726
 H        -0.189528        -0.908705         0.877256
 H         1.131398        -1.882980        -0.759816
 H         2.084882        -1.154243        -2.041986
 H         3.478688        -3.273745         0.283492
 H         4.760318         0.053699         0.862634
 H         1.785408         2.215557         0.218215
 H         1.805759         1.690230        -1.447093
 H         2.214555        -0.599222         2.094246
