19
Iteration:   140charge 0 multiplicity 1
 C        -0.030966        -0.098325         0.248347
 C         1.539476         0.042998         0.033505
 C         2.115131        -0.891538        -1.039641
 C         3.235727        -1.398802        -0.030051
 O         3.772853        -2.593145         0.297274
 C         3.851610         0.041660         0.311412
 O         3.514927         1.138486        -0.427400
 C         2.125484         1.396931        -0.292949
 C         2.559857        -0.552937         1.058502
 H        -0.267154         0.696458         1.129246
 H        -0.677110         0.232587        -0.672988
 H        -0.310584        -1.068787         0.497239
 H         1.367338        -1.631663        -1.224467
 H         2.507677        -0.590930        -2.127272
 H         4.410398        -3.037064        -0.370014
 H         4.780535         0.050647         0.882086
 H         2.020401         2.244489         0.495088
 H         1.546866         1.818589        -1.177000
 H         2.395727        -0.729668         2.144634
