19
Iteration:  4026
 C        -0.001186        -0.032807         0.411131
 C         1.490798        -0.024619         0.057772
 C         2.093737        -1.000856        -1.074559
 C         3.238828        -1.283017         0.004488
 O         3.841921        -2.608306         0.273277
 C         3.849351         0.032804         0.292610
 O         3.517551         1.158080        -0.580920
 C         2.071388         1.351944        -0.281649
 C         2.610928        -0.468476         1.094986
 H        -0.271690         0.659649         1.161254
 H        -0.525368         0.011643        -0.562658
 H        -0.500907        -0.977414         0.944602
 H         1.311390        -1.928837        -1.240404
 H         2.442425        -0.519630        -1.956716
 H         3.928231        -2.873169        -0.699852
 H         4.748812         0.163010         0.845221
 H         1.793703         2.049369         0.462850
 H         1.552689         1.608657        -1.245465
 H         2.662954        -0.695874         2.115759
