19
Iteration:  3972charge 0 multiplicity 1
 C         0.026352        -0.076972         0.422353
 C         1.538669         0.031403         0.016811
 C         1.941136        -1.130819        -0.894796
 C         3.158370        -1.395707        -0.035950
 O         3.981073        -2.447341         0.040732
 C         3.766849         0.017488         0.381353
 O         3.575567         1.181174        -0.373790
 C         2.157932         1.369535        -0.519140
 C         2.553570        -0.430176         1.082186
 H        -0.294692         0.587804         1.277137
 H        -0.725262         0.292480        -0.320722
 H        -0.122461        -1.211589         0.825235
 H         1.140026        -1.958527        -0.932309
 H         2.283596        -0.750171        -1.850465
 H         3.339656        -3.190663         0.336153
 H         4.784478        -0.078848         0.800922
 H         1.814811         2.198712         0.138990
 H         1.929795         1.420099        -1.559261
 H         2.376448        -0.466838         2.131501
