19
Iteration:   364
 C         0.094548        -0.072696         0.274356
 C         1.546935         0.083453        -0.026199
 C         1.985279        -1.069792        -1.063788
 C         3.171824        -1.337896        -0.137605
 O         3.822852        -2.472948         0.291167
 C         3.802417        -0.047064         0.412898
 O         3.557898         1.160217        -0.346001
 C         2.170124         1.476782        -0.318825
 C         2.540767        -0.564196         1.052975
 H        -0.405283         0.331438         1.092990
 H        -0.344698         0.064452        -0.661971
 H        -0.007016        -1.244729         0.473282
 H         1.129504        -1.844309        -1.069177
 H         2.162457        -0.778755        -2.089999
 H         4.157960        -2.990151        -0.491212
 H         4.848808        -0.069041         0.844361
 H         1.801916         2.209238         0.530365
 H         1.769210         1.776625        -1.188877
 H         2.191507        -0.872216         2.077405
