19
Iteration:  4276
 C         0.043038         0.084651         0.305438
 C         1.496531        -0.027279         0.098770
 C         1.891687        -1.170335        -0.864670
 C         3.144382        -1.333124        -0.122123
 O         3.981067        -2.506568         0.138425
 C         3.779186        -0.004723         0.360934
 O         3.551321         1.264297        -0.316791
 C         2.093247         1.345982        -0.509283
 C         2.631287        -0.593766         1.079132
 H        -0.227846         0.716356         1.170222
 H        -0.537547         0.581100        -0.647326
 H        -0.424794        -0.973370         0.685649
 H         1.078029        -2.046656        -0.674447
 H         2.013978        -0.858937        -1.900741
 H         4.704255        -2.637384        -0.466295
 H         4.766138        -0.014503         0.812262
 H         1.752560         2.241582         0.013070
 H         1.782242         1.342993        -1.525666
 H         2.761264        -0.894875         2.171624
