19
Iteration:   798charge 0 multiplicity 1
 C         0.017394         0.198728         0.299500
 C         1.515236        -0.031530        -0.006729
 C         2.140935        -1.176191        -0.986423
 C         3.203917        -1.349167         0.023311
 O         3.876790        -2.540818        -0.052911
 C         3.783412        -0.030354         0.490467
 O         3.542578         1.164097        -0.270898
 C         2.044957         1.295758        -0.492974
 C         2.486424        -0.488906         1.137978
 H         0.007434         1.083660         1.134244
 H        -0.559226         0.310111        -0.606809
 H        -0.446545        -0.739469         0.765761
 H         1.471896        -2.122370        -1.150661
 H         2.492036        -0.795877        -1.930000
 H         4.773548        -2.634573         0.335447
 H         4.704806        -0.029108         1.040535
 H         1.559089         2.158466         0.208233
 H         1.896274         1.613209        -1.486925
 H         2.217454        -0.646950         2.243827
