19
Iteration:    19charge 0 multiplicity 1
 C         0.041986         0.151251         0.356995
 C         1.481499        -0.034556        -0.045377
 C         2.055780        -1.131432        -0.935324
 C         3.350274        -1.316546        -0.027036
 O         3.833776        -2.654721         0.041913
 C         3.805359         0.109679         0.543208
 O         3.586355         1.278567        -0.293686
 C         2.074190         1.283585        -0.530766
 C         2.423167        -0.609554         1.043650
 H        -0.058239         1.046410         1.097302
 H        -0.562126         0.306709        -0.584409
 H        -0.280726        -0.645065         0.967176
 H         1.548533        -2.031890        -0.737330
 H         2.136427        -1.011138        -2.086593
 H         4.680210        -2.576446        -0.384720
 H         4.501560         0.227911         1.354082
 H         1.689493         2.114322         0.077949
 H         1.865235         1.394882        -1.572143
 H         2.107869        -1.043828         1.991249
