19
Iteration:   485
 C         0.119680         0.042569         0.262945
 C         1.563238         0.040929        -0.003065
 C         1.957704        -1.146982        -0.944497
 C         3.155763        -1.422762        -0.055321
 O         3.841207        -2.656559         0.014047
 C         3.760124         0.062179         0.382184
 O         3.538540         1.297574        -0.202856
 C         2.137833         1.378793        -0.466204
 C         2.565527        -0.482651         1.092779
 H        -0.194396         0.758140         0.924522
 H        -0.342829         0.053591        -0.688843
 H         0.024267        -1.010458         0.842259
 H         1.065368        -1.861847        -0.849276
 H         2.193300        -1.068565        -1.976542
 H         4.449126        -2.694739         0.815348
 H         4.657342         0.019099         1.007028
 H         1.628094         2.194116         0.073460
 H         2.026302         1.599864        -1.506967
 H         2.433624        -0.713954         2.108976
