19
Iteration:  2186charge 0 multiplicity 1
 C        -0.064784         0.014798         0.254654
 C         1.500852         0.031617         0.042670
 C         1.974690        -1.107557        -0.792631
 C         3.239438        -1.297529         0.004216
 O         3.932471        -2.478779        -0.133433
 C         3.814732        -0.058555         0.466231
 O         3.558440         1.159517        -0.252342
 C         2.116519         1.296163        -0.542701
 C         2.531563        -0.490849         1.192368
 H        -0.366959         0.743312         1.092012
 H        -0.502625         0.261921        -0.648730
 H        -0.427879        -1.044778         0.356806
 H         1.303232        -2.024575        -0.747480
 H         2.088809        -0.837916        -1.821412
 H         4.880580        -2.348513         0.230415
 H         4.736070        -0.053341         0.918008
 H         1.842619         2.322953        -0.315716
 H         2.063025         1.241674        -1.664872
 H         2.308796        -0.615232         2.235499
