19
Iteration:  2129
 C        -0.027163         0.250015         0.367145
 C         1.459328        -0.028892        -0.033058
 C         2.054142        -1.230840        -0.954503
 C         3.250868        -1.364374        -0.071430
 O         4.055844        -2.497895         0.019160
 C         3.677951         0.048942         0.495754
 O         3.505510         1.095820        -0.373057
 C         2.091502         1.321973        -0.370025
 C         2.493710        -0.570720         1.081538
 H        -0.196073         1.063749         1.006097
 H        -0.503634         0.475767        -0.647421
 H        -0.508893        -0.697453         0.846023
 H         1.376645        -2.037550        -0.899216
 H         2.304279        -0.980569        -2.044474
 H         4.944119        -2.194269        -0.019898
 H         4.653287        -0.035333         1.136134
 H         1.826483         2.064886         0.381737
 H         1.883455         1.615102        -1.472816
 H         2.370434        -0.767309         2.145812
