19
Iteration:  4365
 C        -0.004579        -0.042620         0.393392
 C         1.469850        -0.049835         0.085639
 C         1.943415        -1.077483        -0.920515
 C         3.243402        -1.267662        -0.047848
 O         3.802655        -2.555206         0.115250
 C         3.891394         0.043026         0.283129
 O         3.539848         1.230514        -0.458164
 C         2.144909         1.333273        -0.384841
 C         2.616542        -0.534202         1.064061
 H        -0.402319         0.750567         0.979352
 H        -0.565931         0.218357        -0.621224
 H        -0.148366        -1.185624         0.710319
 H         1.318342        -2.111544        -0.957427
 H         2.079746        -0.818418        -1.964096
 H         4.472126        -2.336897         0.732307
 H         4.881818        -0.060276         0.816582
 H         1.892334         2.165288         0.326228
 H         1.891891         1.523873        -1.365540
 H         2.574772        -0.609177         2.106450
