19
Iteration:  3089
 C         0.078885         0.013534         0.455998
 C         1.495677        -0.063960        -0.005565
 C         2.078250        -1.139102        -1.041478
 C         3.221266        -1.309387        -0.060588
 O         3.882031        -2.516530         0.075670
 C         3.829214        -0.007440         0.466738
 O         3.517529         1.316323        -0.368568
 C         2.096450         1.311691        -0.472165
 C         2.529093        -0.521771         1.031373
 H        -0.054122         0.860205         1.107849
 H        -0.690307         0.110098        -0.305136
 H        -0.108002        -0.901781         1.066673
 H         1.417439        -2.033813        -0.956470
 H         2.180320        -0.864408        -2.114817
 H         3.378234        -3.035091         0.690581
 H         4.760903        -0.013732         1.024264
 H         1.681832         2.131861         0.125570
 H         1.760628         1.462357        -1.553889
 H         2.476993        -0.714477         2.060550
