19
Iteration:  2717charge 0 multiplicity 1
 C         0.044047         0.219216         0.402149
 C         1.466354        -0.042990         0.018370
 C         2.002146        -1.223533        -0.899676
 C         3.215310        -1.299261        -0.015546
 O         4.162190        -2.395443         0.027659
 C         3.793942        -0.036162         0.396978
 O         3.475198         1.071986        -0.482792
 C         2.083771         1.317055        -0.376107
 C         2.413251        -0.525665         1.119792
 H        -0.193578         1.071000         1.086874
 H        -0.460098         0.386436        -0.597938
 H        -0.433697        -0.749599         0.796574
 H         1.316236        -2.076940        -0.764989
 H         2.281848        -1.090796        -2.020506
 H         3.542887        -3.173487        -0.067786
 H         4.720288        -0.039804         0.926992
 H         1.778935         2.172688         0.406601
 H         1.858599         1.720134        -1.391963
 H         2.311492        -0.752677         2.109569
