19
Iteration:  1948
 C        -0.003208         0.314508         0.268789
 C         1.452506        -0.072912         0.090026
 C         1.989132        -1.219796        -0.813783
 C         3.227150        -1.312632         0.004942
 O         4.081412        -2.421741        -0.174134
 C         3.691717        -0.083772         0.522229
 O         3.541432         1.180375        -0.238424
 C         2.125746         1.160456        -0.601225
 C         2.451819        -0.539594         1.204056
 H        -0.317793         1.024657         1.202631
 H        -0.519500         0.648398        -0.661372
 H        -0.642093        -0.534790         0.537003
 H         1.376801        -2.224329        -0.810546
 H         2.166879        -0.897586        -1.834361
 H         5.048237        -2.194302        -0.236806
 H         4.771262        -0.072456         0.956808
 H         1.648003         2.115357        -0.304100
 H         2.115873         0.927399        -1.690918
 H         2.306606        -0.693274         2.302813
