19
Iteration:  2361
 C         0.054891         0.149599         0.408775
 C         1.508276        -0.012623        -0.090372
 C         1.893536        -1.227510        -0.955137
 C         3.164873        -1.394894        -0.108162
 O         4.116392        -2.360347        -0.027163
 C         3.669302        -0.023144         0.543254
 O         3.582965         1.262155        -0.173952
 C         2.159782         1.222513        -0.573102
 C         2.440161        -0.561201         1.068169
 H        -0.085377         1.145923         1.016963
 H        -0.661986         0.225322        -0.409591
 H        -0.173773        -0.672782         1.078064
 H         1.182239        -2.135510        -0.921873
 H         2.072837        -0.941655        -2.032862
 H         4.245989        -2.745208         0.879042
 H         4.705876        -0.264606         0.855925
 H         1.779179         2.210772        -0.253385
 H         2.235860         0.980921        -1.635479
 H         1.963696        -0.862392         2.075322
