19
Iteration:  3418charge 0 multiplicity 1
 C         0.059580        -0.050752         0.423672
 C         1.538614         0.029359        -0.081961
 C         2.002003        -1.214047        -1.051841
 C         3.180042        -1.391525        -0.020001
 O         3.995849        -2.483240         0.157583
 C         3.762835        -0.012282         0.363902
 O         3.567652         1.232140        -0.373791
 C         2.100401         1.460213        -0.420961
 C         2.485366        -0.483511         1.032196
 H        -0.061895         0.751869         1.248575
 H        -0.651071         0.224627        -0.385354
 H        -0.131213        -0.931462         0.958428
 H         1.242041        -2.145495        -0.813816
 H         2.056235        -0.924800        -2.135731
 H         3.358223        -3.161928         0.385683
 H         4.761566        -0.084355         0.900431
 H         1.763305         2.066934         0.503966
 H         1.892444         1.981348        -1.271897
 H         2.355128        -0.609841         2.078388
