19
Iteration:   539charge 0 multiplicity 1
 C         0.084558        -0.039997         0.303050
 C         1.486954         0.004906         0.039925
 C         2.072333        -0.914958        -1.023944
 C         3.214205        -1.315945        -0.029863
 O         3.803453        -2.545779         0.103964
 C         3.807042         0.001334         0.547256
 O         3.554234         1.027289        -0.533042
 C         2.166438         1.401707        -0.327032
 C         2.437055        -0.528740         1.105345
 H        -0.168005         0.563642         1.133367
 H        -0.437838         0.312564        -0.515069
 H        -0.272901        -1.190161         0.275016
 H         1.328273        -1.785558        -1.180118
 H         2.356526        -0.619417        -1.989785
 H         4.711364        -2.347532         0.532570
 H         4.784402         0.038835         0.998461
 H         2.002014         2.104068         0.452406
 H         1.780198         1.805805        -1.364325
 H         2.102495        -0.698476         2.099374
