19
Iteration:  2586charge 0 multiplicity 1
 C        -0.048273         0.183317         0.316211
 C         1.456077        -0.035395         0.038266
 C         1.996674        -1.179106        -0.894901
 C         3.222232        -1.332526         0.001688
 O         3.999309        -2.468178         0.005444
 C         3.783018        -0.021256         0.445667
 O         3.524894         1.132624        -0.423155
 C         2.104236         1.264639        -0.446451
 C         2.547275        -0.541638         1.131705
 H        -0.070574         0.916953         1.099998
 H        -0.650222         0.545721        -0.552935
 H        -0.610356        -0.740624         0.709913
 H         1.363661        -2.111028        -0.811191
 H         2.073130        -0.799547        -1.944608
 H         5.014143        -2.336035        -0.031005
 H         4.820570         0.006116         0.980139
 H         1.845339         2.058235         0.220679
 H         1.600989         1.563520        -1.380621
 H         2.627416        -0.602782         2.239835
