19
Iteration:  3029charge 0 multiplicity 1
 C         0.009069        -0.164055         0.256555
 C         1.524016         0.027224         0.077713
 C         2.051061        -1.051225        -0.927932
 C         3.188426        -1.308869         0.028615
 O         3.929127        -2.482553         0.104887
 C         3.795754         0.004749         0.387747
 O         3.474007         1.066804        -0.586827
 C         2.161058         1.433802        -0.280229
 C         2.535380        -0.366086         1.094344
 H        -0.295924         0.270399         1.260952
 H        -0.596204         0.263602        -0.628537
 H        -0.116523        -1.212706         0.518303
 H         1.286503        -1.800660        -1.091528
 H         2.489697        -0.645833        -1.896267
 H         3.342155        -3.252486         0.370184
 H         4.826319        -0.182228         0.836036
 H         2.182324         2.078055         0.614667
 H         1.799192         1.883771        -1.199244
 H         2.593116        -0.458530         2.233375
