19
Iteration:  2425charge 0 multiplicity 1
 C         0.052837        -0.087299         0.194108
 C         1.501093         0.037639         0.095699
 C         2.111952        -1.043403        -0.879495
 C         3.227365        -1.324777         0.026936
 O         3.798224        -2.575359         0.151383
 C         3.807697         0.019296         0.359819
 O         3.456273         1.137801        -0.496900
 C         2.113965         1.403094        -0.320894
 C         2.611302        -0.480766         1.138667
 H        -0.262775         0.414288         1.127514
 H        -0.523932         0.424082        -0.742040
 H        -0.220237        -1.164145         0.297489
 H         1.431363        -1.893179        -1.063736
 H         2.438022        -0.545262        -1.901625
 H         4.335836        -2.606786        -0.724572
 H         4.792142         0.155923         0.925836
 H         1.680083         2.234972         0.323387
 H         1.762761         1.501256        -1.386758
 H         2.512936        -0.614864         2.258773
