19
Iteration:  2959
 C         0.095209         0.238490         0.481859
 C         1.442296        -0.047273        -0.115547
 C         1.876013        -1.333717        -0.856171
 C         3.148077        -1.353008        -0.078118
 O         4.184178        -2.333194         0.035198
 C         3.696208        -0.056697         0.406917
 O         3.490867         1.255865        -0.178774
 C         2.185253         1.223155        -0.594717
 C         2.501425        -0.537675         1.013081
 H         0.160685         1.153671         1.029851
 H        -0.682608         0.464580        -0.405736
 H        -0.172301        -0.512285         1.235596
 H         1.324683        -2.250001        -0.669037
 H         1.947167        -1.127199        -2.005360
 H         3.651937        -3.205829         0.020472
 H         4.650467        -0.090711         0.882163
 H         1.657768         2.115851        -0.216440
 H         2.229227         1.153930        -1.703926
 H         2.244015        -0.860424         2.001644
