19
Iteration:   203charge 0 multiplicity 1
 C        -0.004435         0.031757         0.365322
 C         1.542557         0.001501         0.042382
 C         2.126824        -1.074129        -1.050544
 C         3.170644        -1.371407        -0.056097
 O         3.848250        -2.653639         0.125410
 C         3.774272         0.011122         0.480477
 O         3.571415         1.222741        -0.274897
 C         2.092537         1.345091        -0.500666
 C         2.502076        -0.466589         1.053680
 H        -0.152630         0.734804         1.211535
 H        -0.642764         0.324336        -0.500655
 H        -0.368656        -0.852458         0.875431
 H         1.241233        -1.732640        -1.265173
 H         2.564030        -0.605382        -1.909426
 H         4.612837        -2.762170        -0.545404
 H         4.712970         0.041080         0.997523
 H         1.807098         2.265641         0.004739
 H         1.965791         1.572478        -1.646244
 H         2.226760        -0.631756         2.120199
