19
Iteration:  2759
 C        -0.032408         0.209518         0.290862
 C         1.487666         0.029466         0.100110
 C         1.890881        -1.302860        -0.788506
 C         3.192306        -1.393421        -0.033252
 O         4.145368        -2.354960        -0.166922
 C         3.721543        -0.055155         0.406387
 O         3.540416         1.231364        -0.223457
 C         2.150636         1.203364        -0.596448
 C         2.575542        -0.480717         1.213693
 H        -0.307250         1.033713         1.137936
 H        -0.456242         0.563780        -0.585962
 H        -0.520375        -0.749640         0.689781
 H         1.209572        -2.274902        -0.623372
 H         1.988536        -1.181183        -1.872081
 H         3.906879        -3.153571         0.249105
 H         4.713640        -0.182701         0.791417
 H         1.693078         2.145161        -0.246138
 H         1.914659         0.999372        -1.612378
 H         2.201370        -0.540607         2.160151
