19
Iteration:  4395charge 0 multiplicity 1
 C         0.175123        -0.082016         0.398620
 C         1.564237         0.004991        -0.029328
 C         2.060289        -1.102379        -0.958456
 C         3.228130        -1.355162        -0.003652
 O         3.745280        -2.729038         0.056119
 C         3.815321         0.059805         0.350088
 O         3.398673         1.246188        -0.470315
 C         2.044306         1.434596        -0.400162
 C         2.646676        -0.394460         1.151351
 H        -0.090403         0.493030         1.289120
 H        -0.381648         0.200682        -0.512187
 H        -0.223221        -1.091160         0.760650
 H         1.382968        -2.002696        -0.919622
 H         2.375573        -0.881769        -1.997375
 H         4.308431        -2.750699         0.877768
 H         4.871536         0.045761         0.753799
 H         1.825835         2.316058         0.408743
 H         1.809243         1.926720        -1.404899
 H         2.537201        -0.126287         2.216056
