19
Iteration:  3051charge 0 multiplicity 1
 C         0.048213        -0.145192         0.408412
 C         1.559392         0.059914        -0.042657
 C         2.033911        -0.974094        -1.120009
 C         3.139501        -1.367122        -0.002920
 O         3.949044        -2.504504         0.289993
 C         3.780337        -0.061487         0.295247
 O         3.503760         1.176863        -0.585737
 C         2.110829         1.475054        -0.224408
 C         2.564038        -0.519723         1.032937
 H        -0.384070         0.500836         1.255523
 H        -0.570259         0.056610        -0.559300
 H        -0.073259        -1.137977         0.854362
 H         1.391017        -1.847877        -1.234937
 H         2.493145        -0.641845        -2.088261
 H         3.467385        -3.264942         0.597956
 H         4.724716        -0.161632         0.914060
 H         1.940212         2.010247         0.723725
 H         1.726009         1.921864        -1.115320
 H         2.347441        -0.601281         2.172737
