19
Iteration:  4330charge 0 multiplicity 1
 C         0.061705         0.114731         0.424855
 C         1.483101         0.018371         0.014342
 C         2.040260        -1.172643        -0.914403
 C         3.150969        -1.365001         0.097346
 O         4.013196        -2.502117        -0.079642
 C         3.755584        -0.044859         0.420087
 O         3.504252         1.097730        -0.445455
 C         2.170059         1.355340        -0.483300
 C         2.398360        -0.470567         1.123534
 H        -0.028453         0.845379         1.207834
 H        -0.685404         0.043929        -0.423063
 H        -0.213766        -0.877455         1.011551
 H         1.422117        -2.133338        -0.828812
 H         2.245285        -0.885121        -1.969077
 H         4.897282        -2.246273         0.070062
 H         4.723081         0.108112         0.937133
 H         1.865871         2.144156         0.288672
 H         1.714903         1.688822        -1.350536
 H         2.194735        -0.254950         2.215271
