19
Iteration:   726
 C         0.150590         0.031396         0.306290
 C         1.577897        -0.001262        -0.026773
 C         2.100075        -1.085934        -0.983779
 C         3.192939        -1.374955         0.013882
 O         3.763261        -2.639065         0.021857
 C         3.777785         0.035948         0.454830
 O         3.521250         1.227431        -0.367968
 C         2.023997         1.357402        -0.382656
 C         2.565210        -0.473496         1.123974
 H        -0.120148         0.835083         0.923490
 H        -0.225450         0.331468        -0.704777
 H        -0.284938        -0.982742         0.374658
 H         1.459743        -1.963427        -1.096508
 H         2.415474        -0.760648        -1.991733
 H         4.285828        -2.838695         0.867134
 H         4.769185         0.190567         0.924700
 H         1.748031         2.063598         0.338694
 H         1.599541         1.696206        -1.410567
 H         2.271958        -0.663323         2.198308
