19
Iteration:  3431charge 0 multiplicity 1
 C         0.034567        -0.030268         0.451798
 C         1.449205         0.022167        -0.069967
 C         2.067418        -1.165604        -1.044584
 C         3.186052        -1.317224        -0.074240
 O         3.943314        -2.470532         0.213255
 C         3.769009         0.019231         0.365947
 O         3.518658         1.126000        -0.470045
 C         2.158498         1.422546        -0.290203
 C         2.546922        -0.468233         0.970990
 H        -0.154294         0.565653         1.244623
 H        -0.813859         0.162327        -0.335582
 H        -0.147828        -1.048960         0.659442
 H         1.435843        -2.082812        -1.212435
 H         2.479963        -0.898290        -2.000516
 H         3.402802        -3.242235         0.579688
 H         4.822055         0.013255         0.916497
 H         2.009995         2.070586         0.612975
 H         1.838575         1.985750        -1.150138
 H         2.336117        -0.605061         2.026923
