19
Iteration:  2086charge 0 multiplicity 1
 C         0.120600        -0.219645         0.324769
 C         1.595754         0.093131         0.064499
 C         2.050402        -1.092381        -1.063372
 C         3.182619        -1.333161        -0.039913
 O         3.727336        -2.544067         0.222769
 C         3.799211         0.014167         0.413061
 O         3.512919         1.201418        -0.380713
 C         2.084212         1.509464        -0.399290
 C         2.600390        -0.461685         1.060588
 H        -0.236312         0.204791         1.227735
 H        -0.459086         0.035371        -0.557987
 H         0.098895        -1.366380         0.533136
 H         1.335055        -1.947020        -1.161554
 H         2.404091        -0.699344        -2.073629
 H         4.029806        -3.041889        -0.568561
 H         4.898134         0.076720         0.854164
 H         1.881034         2.263213         0.275519
 H         1.769120         1.730561        -1.472977
 H         2.368401        -0.690688         2.113625
