19
Iteration:  2722charge 0 multiplicity 1
 C         0.013358         0.245998         0.383710
 C         1.512438        -0.022753         0.013116
 C         1.941140        -1.246770        -0.868449
 C         3.225893        -1.288446        -0.064445
 O         4.190742        -2.350920        -0.003435
 C         3.730573        -0.069236         0.430033
 O         3.495458         1.071272        -0.464303
 C         2.093051         1.289113        -0.376887
 C         2.455894        -0.553569         1.128589
 H        -0.122988         1.128800         1.021911
 H        -0.529743         0.449307        -0.599029
 H        -0.499378        -0.607693         0.698396
 H         1.397380        -2.193429        -0.680967
 H         2.199073        -1.180451        -1.915118
 H         3.597874        -3.097966         0.044894
 H         4.689872        -0.006849         0.996534
 H         1.868042         2.088643         0.235957
 H         1.723220         1.602615        -1.384482
 H         2.178557        -0.764114         2.268896
