19
Iteration:   387charge 0 multiplicity 1
 C        -0.116603        -0.006456         0.207559
 C         1.431364         0.005356         0.026756
 C         2.012348        -1.043148        -0.993114
 C         3.244020        -1.305771        -0.055946
 O         3.881471        -2.533091         0.186400
 C         3.826010        -0.000430         0.378607
 O         3.606951         1.136644        -0.361370
 C         2.203395         1.367376        -0.326358
 C         2.541380        -0.548660         1.079385
 H        -0.255644         0.575798         1.025807
 H        -0.462357         0.524931        -0.647507
 H        -0.672076        -1.022276         0.380837
 H         1.293655        -1.931554        -0.901106
 H         1.986989        -0.709145        -2.015380
 H         4.714013        -2.553193        -0.351949
 H         4.790301        -0.006961         0.985868
 H         1.946897         2.141689         0.513989
 H         1.784595         1.645204        -1.179323
 H         2.494365        -0.749213         2.146282
