19
Iteration:  4374charge 0 multiplicity 1
 C         0.032690        -0.040560         0.366845
 C         1.526487         0.007331         0.055296
 C         2.032246        -1.144104        -0.904716
 C         3.191201        -1.329677        -0.026324
 O         3.746069        -2.578043         0.111433
 C         3.865900         0.058205         0.224715
 O         3.560700         1.281395        -0.453683
 C         2.060333         1.310721        -0.314410
 C         2.647086        -0.467014         1.052355
 H        -0.346023         0.502501         1.180229
 H        -0.488609         0.068073        -0.637904
 H        -0.377743        -1.070884         0.757771
 H         1.295848        -2.041126        -0.951851
 H         2.413751        -0.789830        -1.876151
 H         4.419011        -2.661835         0.751564
 H         4.886111         0.092274         0.707579
 H         1.714775         2.258886         0.276748
 H         1.817250         1.528208        -1.341642
 H         2.619418        -0.680936         2.115504
