19
Iteration:  1243
 C         0.036133        -0.091747         0.180368
 C         1.543680         0.059455         0.028670
 C         1.981731        -1.051225        -0.970334
 C         3.152779        -1.343843        -0.093360
 O         3.818318        -2.512365         0.206880
 C         3.828827         0.011550         0.377452
 O         3.561034         1.181191        -0.349381
 C         2.162120         1.401437        -0.239364
 C         2.575673        -0.533101         1.051951
 H        -0.360708         0.304605         1.083943
 H        -0.477606         0.296734        -0.794022
 H        -0.084466        -1.233382         0.291739
 H         1.285686        -1.871515        -1.031020
 H         2.214933        -0.728282        -2.080474
 H         4.174585        -2.969688        -0.525143
 H         4.799617        -0.032204         0.890021
 H         1.909839         2.248873         0.484139
 H         1.840830         1.774340        -1.166031
 H         2.392656        -0.722755         2.068616
