19
Iteration:  1999
 C        -0.079253         0.057007         0.312043
 C         1.488602        -0.019295         0.018343
 C         2.004991        -1.158399        -0.993631
 C         3.184033        -1.356221        -0.025698
 O         3.988549        -2.511288         0.088843
 C         3.744464        -0.029176         0.394749
 O         3.592233         1.166721        -0.323444
 C         2.163373         1.357842        -0.397262
 C         2.521293        -0.460557         1.084333
 H        -0.290323         0.827548         1.046675
 H        -0.692893         0.342226        -0.479100
 H        -0.597350        -0.940805         0.599099
 H         1.289566        -1.988737        -0.789496
 H         2.069602        -1.120133        -2.142901
 H         4.924218        -2.292659        -0.267523
 H         4.802273        -0.082444         0.905366
 H         1.933657         2.244965         0.348891
 H         1.702558         1.727684        -1.375204
 H         2.376674        -0.707590         2.152793
