19
Iteration:  3800charge 0 multiplicity 1
 C         0.059553        -0.050857         0.384133
 C         1.518216         0.008702         0.017030
 C         2.018544        -1.054740        -0.991324
 C         3.182363        -1.285316        -0.121861
 O         3.895121        -2.493102         0.212819
 C         3.836003        -0.019987         0.367484
 O         3.508455         1.169242        -0.448810
 C         2.112229         1.391259        -0.358584
 C         2.585731        -0.523679         1.026891
 H        -0.235554         0.747461         1.304409
 H        -0.616219         0.070143        -0.433077
 H        -0.153968        -1.042137         0.771862
 H         1.439540        -1.920203        -1.210152
 H         2.206265        -0.805348        -2.137417
 H         3.457629        -3.094838         0.774230
 H         4.889267        -0.204466         0.746694
 H         1.760690         2.132745         0.317988
 H         1.636239         1.718881        -1.362472
 H         2.549265        -0.804793         2.072081
