19
Iteration:  4967
 C         0.012903        -0.039784         0.438071
 C         1.475562         0.064743        -0.058550
 C         2.132473        -1.134257        -1.005541
 C         3.220591        -1.345690         0.037630
 O         3.952867        -2.572350         0.040289
 C         3.793885        -0.030746         0.436039
 O         3.554043         1.232931        -0.411409
 C         2.069981         1.425213        -0.432476
 C         2.471146        -0.471527         1.050938
 H        -0.225256         0.927137         1.017190
 H        -0.697270        -0.055575        -0.398562
 H        -0.120082        -1.027288         1.078489
 H         1.406575        -1.923072        -0.963371
 H         2.427066        -0.861205        -2.001928
 H         3.373938        -3.290335         0.431592
 H         4.851292        -0.071877         0.876670
 H         1.701311         2.040179         0.447955
 H         1.875980         1.888546        -1.386186
 H         2.321094        -0.612722         2.191094
