19
Iteration:  4264charge 0 multiplicity 1
 C         0.026247         0.046388         0.353871
 C         1.529700        -0.000008         0.071623
 C         1.872051        -1.237040        -0.961134
 C         3.189263        -1.389776        -0.070903
 O         3.945532        -2.529870         0.195227
 C         3.822185        -0.010973         0.265936
 O         3.542125         1.332163        -0.292376
 C         2.118083         1.338643        -0.423574
 C         2.609999        -0.464883         1.071604
 H        -0.192728         0.721869         1.231503
 H        -0.549680         0.440091        -0.628816
 H        -0.409958        -1.044466         0.469125
 H         1.264657        -2.231272        -0.888538
 H         1.903869        -1.023620        -2.074505
 H         4.434676        -2.642993        -0.703853
 H         4.813444        -0.144955         0.572692
 H         1.703213         2.207436         0.141040
 H         1.891500         1.527074        -1.424297
 H         2.468670        -0.833146         2.140671
