19
Iteration:  4881
 C         0.020758         0.024046         0.355528
 C         1.537720         0.044117        -0.015991
 C         2.041775        -1.185489        -0.882589
 C         3.187753        -1.342329         0.070477
 O         4.032092        -2.452617        -0.078945
 C         3.725867         0.002039         0.446957
 O         3.556384         1.115688        -0.420594
 C         2.171898         1.335671        -0.414921
 C         2.403835        -0.426623         1.148634
 H        -0.062752         0.501123         1.363542
 H        -0.634156         0.471951        -0.307378
 H        -0.299625        -0.929947         0.429989
 H         1.321876        -1.946226        -0.992514
 H         2.306058        -1.038089        -1.930573
 H         3.474255        -3.196499        -0.085440
 H         4.688143        -0.012250         1.021541
 H         1.778070         2.132338         0.163955
 H         2.017728         1.668282        -1.514343
 H         2.066238        -0.479564         2.299105
