19
Iteration:  1990
 C        -0.096431         0.130793         0.269798
 C         1.438716        -0.002651        -0.017853
 C         1.992291        -1.260330        -0.881701
 C         3.180931        -1.335249        -0.052352
 O         4.050016        -2.475238         0.009856
 C         3.723405        -0.045653         0.409818
 O         3.628452         1.180155        -0.309431
 C         2.152379         1.334806        -0.418232
 C         2.477151        -0.495139         1.111219
 H        -0.182001         0.791570         1.235899
 H        -0.616491         0.500498        -0.553162
 H        -0.487123        -0.840147         0.686523
 H         1.243726        -2.090754        -0.595244
 H         2.165707        -1.182417        -1.930957
 H         4.959752        -2.197336        -0.361496
 H         4.765085        -0.104529         0.976699
 H         1.968134         2.075939         0.457573
 H         1.880463         1.602082        -1.396200
 H         2.165543        -0.560224         2.178793
