19
Iteration:  2465charge 0 multiplicity 1
 C         0.009468        -0.170628         0.364814
 C         1.540624         0.035515        -0.045391
 C         2.100303        -1.038926        -1.009830
 C         3.165091        -1.318827        -0.029278
 O         3.820615        -2.546638         0.160033
 C         3.769762         0.033828         0.343187
 O         3.550215         1.140457        -0.475240
 C         2.154385         1.419490        -0.286977
 C         2.519627        -0.464059         0.993750
 H        -0.189452         0.414373         1.249009
 H        -0.790269         0.012911        -0.349331
 H        -0.145401        -1.250521         0.693225
 H         1.433842        -1.809051        -1.146529
 H         2.575894        -0.761447        -1.927617
 H         4.205396        -2.534235         1.020511
 H         4.685924        -0.061818         0.828893
 H         2.054304         2.023476         0.603310
 H         1.845350         2.151804        -1.083594
 H         2.413428        -0.450904         2.136165
