19
Iteration:  4228
 C         0.125663        -0.057205         0.481028
 C         1.527337        -0.000075        -0.022333
 C         2.074387        -1.124054        -1.044987
 C         3.252564        -1.259482        -0.023247
 O         3.828129        -2.607320         0.210009
 C         3.759668         0.052362         0.403095
 O         3.511458         1.200407        -0.514466
 C         2.103881         1.406950        -0.378476
 C         2.521847        -0.495084         1.070346
 H        -0.203143         0.668031         1.371695
 H        -0.522810         0.228646        -0.324137
 H        -0.071530        -1.039847         0.778458
 H         1.462901        -1.922389        -0.993141
 H         2.211104        -0.712772        -2.146607
 H         4.042212        -2.964789        -0.724157
 H         4.700047         0.166865         0.992735
 H         1.760539         2.124770         0.422508
 H         1.795794         1.697850        -1.372424
 H         2.145666        -0.822066         1.999673
