19
Iteration:  2826charge 0 multiplicity 1
 C         0.092372        -0.051515         0.428583
 C         1.575443         0.002304        -0.009700
 C         2.084529        -1.053815        -1.009151
 C         3.155198        -1.393324        -0.058902
 O         3.924866        -2.486823         0.248864
 C         3.799339        -0.020079         0.346240
 O         3.492159         1.154715        -0.451118
 C         2.045241         1.410053        -0.395973
 C         2.515547        -0.467857         1.008028
 H        -0.139733         0.662310         1.314763
 H        -0.727054         0.040099        -0.312495
 H         0.033726        -1.053477         0.974904
 H         1.315585        -1.879225        -1.208896
 H         2.395830        -0.539455        -1.934355
 H         3.739316        -3.315431        -0.320226
 H         4.776646         0.069019         0.819219
 H         1.812727         2.101568         0.438749
 H         1.838216         1.808674        -1.361716
 H         2.210297        -0.493665         2.073166
