19
Iteration:  4767
 C         0.029062        -0.034810         0.328060
 C         1.517221         0.055542         0.117147
 C         2.160887        -0.947457        -0.998130
 C         3.142522        -1.294763         0.019066
 O         3.962309        -2.545641         0.049763
 C         3.752016        -0.067803         0.394741
 O         3.486983         1.067349        -0.493341
 C         2.090221         1.400107        -0.363866
 C         2.561928        -0.467768         1.132693
 H        -0.408102         0.493577         1.143125
 H        -0.606279         0.110823        -0.595360
 H        -0.469567        -1.127469         0.481032
 H         1.576510        -1.922716        -1.302690
 H         2.519384        -0.460967        -1.890506
 H         3.605517        -3.223116         0.644927
 H         4.725547         0.083151         0.905188
 H         1.768344         2.284169         0.274101
 H         1.751799         1.719664        -1.324267
 H         2.444772        -0.825382         2.158071
