19
Iteration:  3954charge 0 multiplicity 1
 C        -0.029116         0.054464         0.393585
 C         1.423603        -0.007950         0.110384
 C         1.982553        -1.159530        -0.959716
 C         3.149907        -1.295696        -0.049524
 O         4.012684        -2.458787        -0.007091
 C         3.822639        -0.012132         0.344059
 O         3.577579         1.189001        -0.303171
 C         2.117240         1.273644        -0.567785
 C         2.594745        -0.489963         1.149327
 H        -0.292149         0.746881         1.288102
 H        -0.499146         0.376588        -0.501788
 H        -0.431406        -0.818247         0.743510
 H         1.457691        -2.030888        -0.728299
 H         2.001890        -0.814826        -2.078682
 H         3.816654        -3.018662         0.822003
 H         4.759045        -0.098177         0.789271
 H         1.760534         2.243298        -0.017193
 H         1.838473         1.276513        -1.658114
 H         2.549966        -0.701444         2.213629
