19
Iteration:   553
 C        -0.007850        -0.070346         0.284411
 C         1.545792         0.133071         0.010635
 C         2.013566        -1.009829        -1.004294
 C         3.111100        -1.376853        -0.010067
 O         3.927357        -2.519050         0.136045
 C         3.692719        -0.088418         0.399117
 O         3.599951         1.044879        -0.439270
 C         2.210522         1.452478        -0.353842
 C         2.459927        -0.498119         1.101022
 H        -0.333132         0.291075         1.227409
 H        -0.571244         0.372276        -0.569506
 H        -0.155429        -1.153121         0.391008
 H         1.288345        -1.755249        -1.177978
 H         2.354911        -0.529518        -1.971418
 H         4.822392        -2.284723         0.299289
 H         4.609692        -0.160353         0.957059
 H         2.134757         2.184824         0.487100
 H         1.921724         1.905035        -1.215204
 H         2.315394        -0.599648         2.253765
