19
Iteration:  4391
 C         0.130648        -0.099745         0.371950
 C         1.575388        -0.012314         0.023195
 C         2.072713        -1.123710        -0.974051
 C         3.221846        -1.357819         0.017519
 O         3.735158        -2.710308         0.064146
 C         3.815163         0.049766         0.318560
 O         3.429331         1.258547        -0.445231
 C         2.026976         1.449200        -0.410981
 C         2.679660        -0.388503         1.137094
 H        -0.130786         0.677408         1.259901
 H        -0.427033         0.288290        -0.442059
 H        -0.128756        -1.037093         0.682843
 H         1.426220        -1.921751        -0.932380
 H         2.295366        -0.932001        -2.054833
 H         4.291347        -2.677451         0.837499
 H         4.800792         0.006271         0.679867
 H         1.889458         2.111449         0.373635
 H         1.643609         1.931010        -1.426080
 H         2.568589        -0.232072         2.268070
