19
Iteration:  4040charge 0 multiplicity 1
 C         0.038488        -0.041469         0.322358
 C         1.556187         0.003604         0.127499
 C         2.034663        -1.022161        -0.937107
 C         3.204775        -1.389383        -0.065388
 O         3.846197        -2.575001         0.239009
 C         3.815987         0.037240         0.298714
 O         3.443811         1.164534        -0.515069
 C         2.042928         1.388507        -0.353499
 C         2.658441        -0.500389         1.084780
 H        -0.210511         0.869685         1.011092
 H        -0.527013         0.259750        -0.542342
 H        -0.238009        -1.030882         0.760223
 H         1.346555        -1.793736        -1.123616
 H         2.306013        -0.534335        -1.951701
 H         4.540730        -2.871128        -0.361265
 H         4.839971        -0.007080         0.590463
 H         2.021275         2.193367         0.379034
 H         1.690814         1.691099        -1.268659
 H         2.503338        -0.730470         2.156783
