19
Iteration:   961
 C         0.035926         0.076013         0.215360
 C         1.546475         0.026479         0.039607
 C         1.896543        -1.132677        -0.899811
 C         3.150021        -1.345048        -0.050919
 O         4.008503        -2.459641        -0.040850
 C         3.688751        -0.031588         0.478328
 O         3.644853         1.096185        -0.382322
 C         2.236211         1.399356        -0.329293
 C         2.388948        -0.544730         1.079566
 H        -0.239899         0.649561         1.146677
 H        -0.481260         0.381926        -0.615291
 H        -0.437975        -0.929746         0.511693
 H         1.172915        -2.017950        -0.531396
 H         1.897797        -1.166114        -1.947967
 H         4.644836        -2.295869         0.630550
 H         4.717995        -0.218077         0.867085
 H         2.033671         2.132736         0.424992
 H         2.008818         1.905468        -1.328067
 H         2.057557        -0.806528         2.165793
