19
Iteration:  1182charge 0 multiplicity 1
 C         0.031807         0.199190         0.408115
 C         1.468747        -0.055693        -0.015266
 C         1.959522        -1.137907        -1.014791
 C         3.194704        -1.305759        -0.065608
 O         3.993328        -2.421293         0.020872
 C         3.735243        -0.095979         0.504671
 O         3.567710         1.146563        -0.222696
 C         2.202285         1.316011        -0.539958
 C         2.405658        -0.626856         1.069364
 H        -0.088399         1.148045         1.020020
 H        -0.622656         0.353042        -0.383634
 H        -0.419763        -0.646176         0.906787
 H         1.506184        -2.201498        -0.970271
 H         2.156676        -0.857690        -1.982678
 H         4.917791        -2.233452         0.029032
 H         4.729888        -0.118036         0.996044
 H         1.802177         2.207493        -0.043301
 H         2.108196         1.249720        -1.699977
 H         2.093270        -0.829829         2.158603
