19
Iteration:  3694charge 0 multiplicity 1
 C         0.059447         0.040523         0.333453
 C         1.555885         0.017417         0.022764
 C         1.843616        -1.158821        -0.941117
 C         3.168657        -1.390452        -0.093457
 O         4.047258        -2.438820         0.063859
 C         3.774252        -0.018625         0.349807
 O         3.518361         1.242477        -0.271184
 C         2.144999         1.338057        -0.508137
 C         2.548434        -0.561052         1.135093
 H        -0.121992         0.897344         0.922562
 H        -0.562738         0.088483        -0.663049
 H        -0.172270        -0.850725         0.918702
 H         1.169564        -2.039420        -0.754658
 H         2.045169        -0.822376        -1.938303
 H         3.607212        -3.163798         0.505610
 H         4.776463         0.023448         0.915681
 H         1.820872         2.266728         0.070578
 H         1.917805         1.372466        -1.512772
 H         2.470843        -0.635492         2.227006
