19
Iteration:  2402
 C        -0.016232         0.067522         0.347022
 C         1.505085        -0.029218         0.038941
 C         2.067260        -1.149149        -0.961849
 C         3.205153        -1.333296        -0.040439
 O         3.991412        -2.548132         0.106420
 C         3.766909         0.069944         0.452077
 O         3.581468         1.219818        -0.333101
 C         2.047315         1.292483        -0.484160
 C         2.547677        -0.486638         1.096184
 H        -0.220058         0.814360         1.029368
 H        -0.538301         0.380774        -0.734315
 H        -0.463998        -0.923872         0.726931
 H         1.356253        -1.926195        -0.916901
 H         2.353081        -0.923625        -2.099428
 H         3.642181        -3.072532        -0.611419
 H         4.725190        -0.092355         0.900288
 H         1.544022         1.963875         0.269401
 H         1.827262         1.564256        -1.560172
 H         2.277863        -0.514584         2.214946
