19
Iteration:  1024
 C         0.070602         0.098700         0.301505
 C         1.525310         0.017663         0.046071
 C         2.068293        -1.041097        -0.996472
 C         3.223853        -1.350458        -0.028630
 O         3.827012        -2.646660         0.054561
 C         3.734157         0.045432         0.489340
 O         3.506298         1.203940        -0.234975
 C         2.131301         1.331894        -0.493118
 C         2.548297        -0.587969         1.063671
 H        -0.085639         0.856337         0.974734
 H        -0.547549         0.420096        -0.637290
 H        -0.252508        -0.896651         0.574032
 H         1.402009        -1.873723        -0.994832
 H         2.223609        -0.597551        -2.006318
 H         4.711684        -2.599569        -0.368903
 H         4.653642         0.167682         1.093109
 H         1.588541         2.144049         0.058115
 H         1.982560         1.439743        -1.615585
 H         2.501184        -0.957558         2.186638
