19
Iteration:  4757charge 0 multiplicity 1
 C         0.077339        -0.059049         0.328393
 C         1.535101         0.023170         0.062630
 C         2.121474        -0.957667        -1.018391
 C         3.191449        -1.426883         0.065823
 O         3.938622        -2.517896         0.080950
 C         3.775570         0.032134         0.369685
 O         3.500216         1.079894        -0.472346
 C         2.012409         1.412934        -0.353375
 C         2.524684        -0.491219         1.104424
 H        -0.217528         0.537835         1.135128
 H        -0.361767         0.458549        -0.562544
 H        -0.120782        -1.200513         0.514079
 H         1.182176        -1.612389        -1.333861
 H         2.583907        -0.544989        -1.913351
 H         3.373991        -3.198456         0.403531
 H         4.734642         0.065198         0.952835
 H         1.959983         2.143843         0.479525
 H         1.669553         1.680646        -1.356962
 H         2.458347        -0.531231         2.187291
