19
Iteration:  1692
 C        -0.061765        -0.029306         0.265335
 C         1.525154         0.014601         0.011973
 C         2.118001        -1.084239        -0.958515
 C         3.234538        -1.312778        -0.051982
 O         3.787205        -2.589937         0.193160
 C         3.823071         0.052347         0.370067
 O         3.519258         1.197332        -0.376670
 C         2.104045         1.354275        -0.347466
 C         2.614518        -0.482888         1.055848
 H        -0.286558         0.553261         1.097230
 H        -0.582615         0.283210        -0.622934
 H        -0.381488        -1.125507         0.445035
 H         1.412317        -1.933780        -0.996248
 H         2.394291        -0.713319        -1.982272
 H         4.287366        -2.956276        -0.576292
 H         4.820956         0.123515         0.965052
 H         1.973067         2.000677         0.528706
 H         1.652874         1.674772        -1.291135
 H         2.649146        -0.573535         2.187876
