19
Iteration:  2962charge 0 multiplicity 1
 C         0.088143         0.233504         0.468289
 C         1.455150        -0.051932        -0.099710
 C         1.877504        -1.335685        -0.845368
 C         3.143816        -1.342763        -0.063443
 O         4.187088        -2.355608         0.030201
 C         3.699042        -0.037021         0.407666
 O         3.483128         1.237188        -0.170929
 C         2.177742         1.235627        -0.606647
 C         2.516504        -0.521960         1.005750
 H         0.161889         1.149584         1.030367
 H        -0.695208         0.485461        -0.396110
 H        -0.206847        -0.508573         1.193604
 H         1.317009        -2.220089        -0.703667
 H         1.993147        -1.102245        -2.009420
 H         3.634131        -3.134714        -0.031230
 H         4.669634        -0.184503         0.845973
 H         1.609467         2.088995        -0.179371
 H         2.180119         1.175429        -1.707900
 H         2.264434        -0.809548         1.971750
