19
Iteration:  4235
 C         0.120154        -0.029400         0.418570
 C         1.506804         0.026441        -0.041245
 C         2.041875        -1.169275        -1.017885
 C         3.266807        -1.314336        -0.033160
 O         3.828873        -2.571466         0.201993
 C         3.770603         0.028313         0.383699
 O         3.515330         1.233354        -0.454773
 C         2.092064         1.395287        -0.371897
 C         2.545304        -0.459682         1.050561
 H         0.172311         0.519275         1.300809
 H        -0.635394         0.228390        -0.316780
 H        -0.117997        -1.037874         0.854458
 H         1.401081        -2.140288        -0.937260
 H         2.182997        -0.895112        -2.021667
 H         3.998996        -2.933390        -0.691544
 H         4.714709         0.004876         0.997745
 H         1.697137         2.074086         0.417751
 H         1.688298         1.865404        -1.377051
 H         2.404415        -0.804300         2.111159
