19
Iteration:   262charge 0 multiplicity 1
 C        -0.038773         0.155646         0.178047
 C         1.454002         0.041390        -0.022614
 C         1.906168        -1.255014        -0.843837
 C         3.153476        -1.442952        -0.013875
 O         4.081455        -2.536114         0.073967
 C         3.749398        -0.095284         0.368215
 O         3.605629         1.191491        -0.321532
 C         2.194366         1.457489        -0.326274
 C         2.462731        -0.535377         1.056605
 H        -0.206120         0.728934         1.159862
 H        -0.684762         0.621277        -0.590310
 H        -0.327037        -0.863218         0.311436
 H         1.155709        -1.982173        -0.833714
 H         2.153945        -0.985505        -1.946257
 H         4.779438        -2.180950        -0.485734
 H         4.621385        -0.132436         0.999463
 H         1.822661         1.886797         0.646563
 H         1.885814         2.097468        -1.195929
 H         2.370965        -0.401074         2.098592
