19
Iteration:  4146charge 0 multiplicity 1
 C        -0.027410         0.130985         0.391747
 C         1.513066        -0.013238         0.002314
 C         2.003932        -1.247655        -0.835289
 C         3.238713        -1.321198        -0.061581
 O         3.927394        -2.554870        -0.004939
 C         3.815409         0.048975         0.367990
 O         3.537383         1.204220        -0.376861
 C         2.082996         1.279449        -0.390958
 C         2.564124        -0.463951         1.036185
 H        -0.119411         0.885297         1.084685
 H        -0.615840         0.274244        -0.535328
 H        -0.617947        -0.760519         0.801637
 H         1.240643        -2.155305        -0.550183
 H         1.985175        -1.187908        -1.873688
 H         4.777234        -2.407256         0.424485
 H         4.793995        -0.146638         0.731852
 H         1.795879         2.209072         0.237432
 H         1.873703         1.785126        -1.482630
 H         2.299747        -0.653628         2.096381
