19
Iteration:  4636charge 0 multiplicity 1
 C         0.036842         0.071111         0.347126
 C         1.530682        -0.004669        -0.011402
 C         1.970461        -1.177368        -0.908020
 C         3.246143        -1.284581        -0.035548
 O         3.975860        -2.480975        -0.076703
 C         3.776608        -0.006657         0.440317
 O         3.528766         1.109187        -0.419370
 C         2.178012         1.336495        -0.363038
 C         2.455807        -0.509575         1.133570
 H        -0.282615         0.870236         0.965981
 H        -0.495248         0.224599        -0.659150
 H        -0.357514        -0.987848         0.696116
 H         1.241650        -2.021762        -0.517159
 H         1.861951        -1.013129        -1.982400
 H         4.449551        -2.380679         0.832134
 H         4.625568         0.066437         1.067252
 H         1.775421         2.101579         0.403676
 H         1.592359         1.723017        -1.397921
 H         2.325140        -0.540106         2.236590
