19
Iteration:   441
 C        -0.025731         0.158131         0.368456
 C         1.443236         0.014962        -0.011484
 C         2.003930        -1.157185        -0.950920
 C         3.225600        -1.315521        -0.021188
 O         3.982675        -2.512647        -0.086761
 C         3.705190         0.003497         0.577771
 O         3.640032         1.127664        -0.300426
 C         2.172621         1.258970        -0.543602
 C         2.452379        -0.502305         1.093488
 H        -0.236195         0.860481         1.114535
 H        -0.662800         0.370357        -0.461787
 H        -0.437759        -0.927624         0.765696
 H         1.401825        -2.126196        -1.079282
 H         2.148338        -0.749802        -1.933444
 H         4.683515        -2.497788         0.644322
 H         4.613008        -0.089310         1.250437
 H         1.782567         2.120711         0.096037
 H         1.936647         1.473385        -1.540212
 H         2.222482        -0.608961         2.138652
