19
Iteration:  2895charge 0 multiplicity 1
 C         0.055994        -0.003641         0.349976
 C         1.495358        -0.023156         0.035718
 C         2.002100        -1.211549        -0.820303
 C         3.248703        -1.368697         0.000872
 O         3.950746        -2.525164         0.006038
 C         3.758616         0.071602         0.407617
 O         3.502803         1.206357        -0.442543
 C         2.098767         1.374404        -0.455293
 C         2.580533        -0.413402         1.160860
 H        -0.316376         0.696988         1.039681
 H        -0.361548         0.479033        -0.696508
 H        -0.360891        -0.992235         0.564176
 H         1.385282        -2.057909        -0.942453
 H         2.362195        -0.864506        -1.921991
 H         3.443768        -3.388260        -0.015534
 H         4.759216         0.099594         0.829192
 H         1.787009         2.230456         0.235184
 H         1.841243         1.463815        -1.535832
 H         2.464735        -0.475217         2.232790
