19
Iteration:  1797
 C         0.024877         0.121016         0.383768
 C         1.515476        -0.025239        -0.018026
 C         1.965732        -1.211671        -0.901799
 C         3.228315        -1.339256        -0.073642
 O         3.990880        -2.548280        -0.022989
 C         3.702714        -0.024828         0.448193
 O         3.522804         1.231917        -0.223597
 C         2.135589         1.295626        -0.543543
 C         2.521194        -0.452504         1.108523
 H        -0.271902         0.959299         1.055785
 H        -0.527537         0.398657        -0.598388
 H        -0.386082        -0.796090         0.668883
 H         1.227256        -2.030687        -0.679452
 H         2.096923        -1.076610        -2.013593
 H         4.845335        -2.473274         0.525983
 H         4.767575         0.043116         0.967910
 H         1.680868         2.234896        -0.257846
 H         2.085587         1.476576        -1.706782
 H         2.273899        -0.839167         2.100052
