19
Iteration:  3247
 C         0.140851        -0.357620         0.430974
 C         1.532771         0.100976        -0.019325
 C         2.057255        -1.022196        -0.986937
 C         3.138971        -1.274723        -0.027285
 O         3.708743        -2.653139         0.210394
 C         3.847095         0.075292         0.279939
 O         3.560342         1.239622        -0.482289
 C         2.134593         1.430664        -0.377255
 C         2.598638        -0.356466         1.037868
 H        -0.220683         0.251117         1.188443
 H        -0.651935        -0.355153        -0.444162
 H         0.269359        -1.422064         0.637235
 H         1.484594        -1.927980        -1.075493
 H         2.350678        -0.706970        -2.085491
 H         3.353896        -2.967695         1.011787
 H         4.805467         0.082583         0.706573
 H         1.751613         2.035648         0.510210
 H         1.760117         2.043803        -1.296411
 H         2.525987        -0.368262         2.092053
