19
Iteration:  1856
 C         0.075945        -0.179991         0.299147
 C         1.543770         0.025121         0.046942
 C         2.174463        -0.900791        -1.015244
 C         3.245416        -1.358923         0.047249
 O         3.720156        -2.599351         0.164533
 C         3.792788         0.054888         0.366772
 O         3.455428         1.070742        -0.591003
 C         2.092226         1.468067        -0.246862
 C         2.562779        -0.506457         1.048158
 H        -0.224513         0.466094         1.107090
 H        -0.503483         0.089199        -0.609273
 H        -0.299228        -1.269300         0.553581
 H         1.470992        -1.586054        -1.374418
 H         2.617262        -0.400472        -1.853147
 H         4.399727        -2.632425         0.870872
 H         4.614374         0.201368         0.950505
 H         2.122928         2.273945         0.557576
 H         1.711776         1.752413        -1.125536
 H         2.560024        -0.474212         2.140382
