19
Iteration:  3997charge 0 multiplicity 1
 C         0.134117        -0.128330         0.453212
 C         1.539117         0.021834        -0.064859
 C         2.046379        -1.113293        -0.994120
 C         3.243064        -1.313268        -0.007382
 O         3.883095        -2.540144         0.159456
 C         3.755485         0.020545         0.393642
 O         3.505582         1.131300        -0.518809
 C         2.115168         1.445933        -0.367055
 C         2.485510        -0.392645         1.091795
 H        -0.068088         0.734566         1.262950
 H        -0.635421         0.090031        -0.265182
 H        -0.002571        -1.094064         0.960175
 H         1.390982        -1.879813        -0.887615
 H         2.409134        -0.885526        -2.086743
 H         3.306908        -3.034427        -0.496280
 H         4.692742         0.039134         0.871215
 H         1.857476         2.209941         0.495791
 H         1.813063         1.729013        -1.358452
 H         2.331518        -0.660835         2.144128
