19
Iteration:  3094
 C         0.081278        -0.002868         0.429314
 C         1.475522        -0.018274         0.014363
 C         2.076455        -1.191160        -0.996716
 C         3.224831        -1.318253        -0.065691
 O         3.894976        -2.527510         0.017429
 C         3.800585         0.014670         0.494856
 O         3.531107         1.313721        -0.346441
 C         2.104631         1.302059        -0.515612
 C         2.544513        -0.506729         1.056657
 H        -0.036057         0.854058         1.162117
 H        -0.761181         0.242482        -0.394251
 H        -0.166315        -0.810728         1.116989
 H         1.331916        -1.982854        -0.953177
 H         2.172182        -0.852403        -2.097192
 H         3.463000        -3.130237         0.671994
 H         4.787596         0.138802         0.989001
 H         1.699873         2.157500         0.095406
 H         1.755398         1.330766        -1.557965
 H         2.386945        -0.681495         2.174791
