19
Iteration:  2628charge 0 multiplicity 1
 C         0.076019        -0.215528         0.471300
 C         1.513417         0.029547        -0.048915
 C         2.131927        -1.047589        -1.028732
 C         3.212271        -1.347116         0.014635
 O         3.733020        -2.601826         0.130958
 C         3.804944         0.049047         0.321342
 O         3.536172         1.220736        -0.486378
 C         2.085835         1.420690        -0.351105
 C         2.590664        -0.413680         1.008110
 H        -0.085114         0.569258         1.324995
 H        -0.694240        -0.130959        -0.220055
 H        -0.022047        -1.257248         0.928736
 H         1.196608        -1.724749        -1.174800
 H         2.656694        -0.892202        -1.981070
 H         3.965479        -2.601918         1.086443
 H         4.824367         0.033959         0.846846
 H         1.640651         2.198609         0.381616
 H         1.937253         1.846115        -1.312864
 H         2.425957        -0.454007         2.110915
