19
Iteration:   566
 C        -0.014535        -0.040451         0.266968
 C         1.424238         0.060395        -0.003419
 C         2.024410        -1.095889        -1.020652
 C         3.060222        -1.424448         0.042684
 O         3.941188        -2.539824         0.121603
 C         3.755782        -0.116998         0.348924
 O         3.632442         1.136086        -0.334939
 C         2.232083         1.464031        -0.310662
 C         2.483847        -0.425008         1.048572
 H        -0.297448         0.559702         1.215125
 H        -0.815920         0.331065        -0.514879
 H        -0.299290        -1.010982         0.366192
 H         1.251662        -1.812484        -1.066358
 H         2.479285        -0.964901        -2.089427
 H         4.783064        -2.024811        -0.174659
 H         4.752387        -0.116562         0.876845
 H         2.009316         2.351378         0.385336
 H         2.018442         1.762779        -1.293827
 H         2.482352        -0.488477         2.200525
