19
Iteration:  3383charge 0 multiplicity 1
 C        -0.028038         0.099061         0.362120
 C         1.486853        -0.039209         0.076673
 C         1.967814        -1.175444        -0.908813
 C         3.238808        -1.282163         0.010328
 O         4.000575        -2.421869        -0.072061
 C         3.807340        -0.029695         0.447365
 O         3.543321         1.214217        -0.217747
 C         2.142523         1.232457        -0.684229
 C         2.578011        -0.518644         1.205561
 H        -0.321321         1.107892         0.949765
 H        -0.536449         0.185748        -0.536542
 H        -0.559509        -0.786932         0.776438
 H         1.231008        -2.129321        -0.726208
 H         1.890618        -0.955489        -2.057006
 H         3.387512        -3.175989         0.027576
 H         4.714804         0.166363         0.854899
 H         1.720547         2.238556        -0.346046
 H         2.071533         1.157708        -1.740049
 H         2.528988        -0.722502         2.288301
