19
Iteration:  3985
 C         0.136981        -0.086998         0.452416
 C         1.522676         0.069644         0.008029
 C         1.996022        -1.113708        -0.989520
 C         3.128513        -1.323809         0.024368
 O         3.945540        -2.528165         0.093235
 C         3.772665         0.011698         0.415688
 O         3.580729         1.182925        -0.453570
 C         2.081992         1.372809        -0.476317
 C         2.513693        -0.426694         1.083824
 H        -0.124686         0.587112         1.397958
 H        -0.518389        -0.045544        -0.399571
 H         0.002448        -1.211019         0.715136
 H         1.325656        -1.903989        -0.888855
 H         2.055296        -1.055407        -2.151780
 H         3.520202        -3.329415        -0.132497
 H         4.649035         0.045557         0.967971
 H         1.877099         2.274943         0.253521
 H         1.800760         1.803312        -1.394894
 H         2.305906        -0.476318         2.130624
