19
Iteration:  2410
 C        -0.005111         0.016790         0.293548
 C         1.549452        -0.039028         0.052483
 C         2.046739        -1.088496        -0.983593
 C         3.209239        -1.339977         0.043148
 O         3.930991        -2.576355         0.113471
 C         3.805005         0.069527         0.432893
 O         3.532973         1.201445        -0.376978
 C         2.029742         1.317547        -0.463712
 C         2.579173        -0.467435         1.144230
 H        -0.335389         0.705518         1.030380
 H        -0.409187         0.381613        -0.677779
 H        -0.475648        -0.984218         0.496938
 H         1.388136        -1.924139        -1.043513
 H         2.318423        -0.765412        -1.968165
 H         3.851702        -3.006271        -0.758173
 H         4.750198         0.050585         0.871927
 H         1.875234         2.095004         0.283571
 H         1.699286         1.583818        -1.497752
 H         2.484394        -0.570970         2.217144
