19
Iteration:  4417
 C         0.073006        -0.092238         0.489918
 C         1.510406         0.018399         0.033135
 C         2.110626        -1.051546        -0.977682
 C         3.207408        -1.316559         0.062591
 O         3.778805        -2.590885         0.022697
 C         3.792506         0.070323         0.363266
 O         3.569229         1.149388        -0.521144
 C         2.075821         1.366900        -0.459685
 C         2.529683        -0.423842         1.056325
 H        -0.072927         0.422240         1.459339
 H        -0.682496         0.175156        -0.281182
 H        -0.118334        -1.151484         0.939878
 H         1.397293        -1.958615        -0.953128
 H         2.383155        -0.797052        -2.007614
 H         4.285389        -2.687559         0.842442
 H         4.669160         0.043561         1.087461
 H         2.134556         2.237082         0.351494
 H         1.625690         1.755671        -1.443976
 H         2.350399        -0.638029         2.106803
