19
Iteration:  2118charge 0 multiplicity 1
 C        -0.043209         0.134066         0.348989
 C         1.460105        -0.084780         0.078306
 C         2.016072        -1.150610        -1.035229
 C         3.240625        -1.337600        -0.024455
 O         3.995385        -2.523253         0.095162
 C         3.783939        -0.025885         0.441929
 O         3.568617         1.170198        -0.380998
 C         2.092956         1.329487        -0.397926
 C         2.489949        -0.525216         1.068723
 H        -0.190208         0.919593         1.024557
 H        -0.655503         0.395400        -0.576167
 H        -0.599880        -0.801829         0.755771
 H         1.446440        -2.026054        -1.161678
 H         2.162955        -0.635679        -2.034669
 H         4.879491        -2.336354        -0.214050
 H         4.779573         0.083071         1.051206
 H         1.752210         2.121892         0.240216
 H         1.772419         1.707614        -1.447411
 H         2.282730        -0.666312         2.131928
