19
Iteration:   420
 C         0.122413         0.178349         0.294315
 C         1.549844        -0.001823        -0.035343
 C         2.174927        -1.140750        -0.911322
 C         3.216989        -1.380654         0.086112
 O         3.938269        -2.565713        -0.091936
 C         3.685951        -0.044092         0.462872
 O         3.459046         1.108495        -0.334360
 C         2.087716         1.371182        -0.449478
 C         2.382141        -0.508835         1.160612
 H         0.070982         0.858547         1.046802
 H        -0.472813         0.614959        -0.485663
 H        -0.574115        -0.731064         0.613597
 H         1.367233        -1.962691        -0.872921
 H         2.488914        -1.020697        -1.934205
 H         4.805121        -2.338209         0.152462
 H         4.647389         0.197107         1.004872
 H         1.850640         2.360653         0.161000
 H         1.732054         1.522865        -1.393049
 H         2.221229        -0.682461         2.187869
