19
Iteration:  1684charge 0 multiplicity 1
 C         0.025827        -0.080690         0.256624
 C         1.506521         0.025949         0.030274
 C         2.108899        -1.025166        -1.038131
 C         3.281403        -1.356972        -0.041367
 O         3.764452        -2.645266         0.222980
 C         3.802238         0.086441         0.397369
 O         3.469617         1.125784        -0.459274
 C         2.100607         1.454237        -0.276437
 C         2.624288        -0.468064         1.070303
 H        -0.322303         0.513796         1.179432
 H        -0.492625         0.310050        -0.569265
 H        -0.255559        -1.112488         0.533967
 H         1.431304        -1.981478        -1.229585
 H         2.460030        -0.664144        -1.995507
 H         4.444374        -2.958832        -0.376791
 H         4.663486         0.205247         0.990046
 H         1.931705         2.185675         0.482795
 H         1.611545         1.994470        -1.250650
 H         2.517613        -0.619611         2.192409
