19
Iteration:  1170charge 0 multiplicity 1
 C        -0.051446         0.182089         0.379951
 C         1.476355         0.009437        -0.008359
 C         1.944728        -1.258385        -1.045834
 C         3.107540        -1.375657        -0.102970
 O         4.023739        -2.420978         0.045282
 C         3.701036        -0.023420         0.448351
 O         3.635955         1.162323        -0.163845
 C         2.226943         1.257624        -0.475002
 C         2.490880        -0.543921         1.031773
 H        -0.089646         0.968811         1.148312
 H        -0.606212         0.348343        -0.427864
 H        -0.364028        -0.746189         0.921907
 H         1.044885        -2.021707        -1.074137
 H         2.093607        -0.960936        -1.980109
 H         4.854253        -1.917022         0.166370
 H         4.657557        -0.202295         0.969420
 H         1.895467         2.186018        -0.067279
 H         2.087685         1.493544        -1.621436
 H         2.258407        -0.793031         2.087248
