19
Iteration:  2061charge 0 multiplicity 1
 C         0.076952        -0.332100         0.387215
 C         1.564405         0.032515        -0.091576
 C         2.161484        -1.009115        -1.031078
 C         3.235633        -1.339689         0.026600
 O         3.609943        -2.621909         0.250463
 C         3.803797         0.114434         0.360128
 O         3.578616         1.263937        -0.445700
 C         2.102181         1.430816        -0.300414
 C         2.569135        -0.367614         0.975758
 H        -0.088342         0.090517         1.345201
 H        -0.788358        -0.221821        -0.446496
 H         0.241853        -1.364783         0.743573
 H         1.493505        -1.765822        -1.231169
 H         2.544905        -0.548987        -2.004796
 H         3.612488        -3.162530        -0.622932
 H         4.743265         0.153973         0.868154
 H         1.938156         1.814062         0.682117
 H         1.840355         2.015133        -1.230703
 H         2.413868        -0.431853         2.060167
