19
Iteration:   430charge 0 multiplicity 1
 C         0.029247         0.176473         0.331113
 C         1.509489        -0.020363        -0.014626
 C         2.076868        -1.117842        -0.954607
 C         3.239008        -1.364863         0.048924
 O         3.969569        -2.532605        -0.097651
 C         3.710065        -0.033431         0.544814
 O         3.510767         1.119007        -0.341524
 C         2.131762         1.359681        -0.508293
 C         2.401921        -0.557987         1.145892
 H         0.052154         0.885145         1.099675
 H        -0.522059         0.559478        -0.477067
 H        -0.451508        -0.862543         0.794638
 H         1.418241        -2.060355        -0.822992
 H         2.364668        -0.947000        -1.976371
 H         4.787733        -2.516633         0.377163
 H         4.667464         0.058992         1.175119
 H         1.754693         2.301857         0.066792
 H         2.082206         1.518707        -1.548137
 H         2.114497        -0.433182         2.169796
