19
Iteration:  1307
 C         0.113402        -0.022974         0.362758
 C         1.532859         0.017181        -0.027992
 C         2.170683        -1.084407        -1.039120
 C         3.242802        -1.335905        -0.059321
 O         3.763643        -2.644793         0.049420
 C         3.711507         0.049170         0.532087
 O         3.542720         1.189615        -0.377553
 C         2.074097         1.389195        -0.366596
 C         2.497012        -0.485327         1.100220
 H         0.035933         0.743044         1.121367
 H        -0.755239         0.183286        -0.385406
 H        -0.265863        -0.928706         0.845559
 H         1.506571        -1.844043        -1.143280
 H         2.610000        -0.713385        -2.052789
 H         4.689965        -2.621903        -0.207001
 H         4.656161         0.051229         1.120925
 H         1.641857         2.302604         0.204577
 H         1.853685         1.720741        -1.373630
 H         2.149013        -0.744408         2.052190
