19
Iteration:   876charge 0 multiplicity 1
 C         0.034372        -0.164725         0.325751
 C         1.496018         0.036480        -0.062194
 C         2.020136        -1.008462        -1.062579
 C         3.123080        -1.327401        -0.051806
 O         3.809144        -2.577558         0.252102
 C         3.803765        -0.056567         0.393653
 O         3.642951         1.206118        -0.346027
 C         2.211300         1.484116        -0.335777
 C         2.472241        -0.444584         1.003735
 H        -0.335966         0.286003         1.370341
 H        -0.569615         0.031989        -0.547420
 H         0.147483        -1.252245         0.679626
 H         1.300808        -1.861696        -1.351851
 H         2.386969        -0.517821        -1.963060
 H         4.124364        -2.966476        -0.635850
 H         4.656568        -0.266161         1.068362
 H         1.953786         2.235623         0.535000
 H         1.972209         1.908689        -1.268732
 H         2.334390        -0.682410         2.049022
