19
Iteration:  1302
 C         0.097657        -0.039771         0.378116
 C         1.537046        -0.029754        -0.048056
 C         2.223165        -1.055463        -1.101364
 C         3.201182        -1.344076        -0.044619
 O         3.754608        -2.633962         0.083452
 C         3.709839         0.028910         0.504010
 O         3.545548         1.175046        -0.388174
 C         2.047267         1.427029        -0.332850
 C         2.517604        -0.435801         1.099148
 H         0.079918         0.835475         1.108321
 H        -0.629604         0.175189        -0.334056
 H        -0.238654        -0.989724         0.846451
 H         1.468466        -1.962562        -1.260178
 H         2.592062        -0.666058        -1.994066
 H         4.711092        -2.752316        -0.228463
 H         4.602745         0.071175         1.084800
 H         1.826747         2.153704         0.429775
 H         1.795621         1.784425        -1.406364
 H         2.114707        -0.729189         2.132494
