19
Iteration:  2050charge 0 multiplicity 1
 C         0.080082        -0.288590         0.428373
 C         1.501127         0.032674        -0.057285
 C         2.204460        -1.040251        -1.109117
 C         3.208141        -1.307915        -0.030919
 O         3.611390        -2.620561         0.269507
 C         3.893312         0.099436         0.379586
 O         3.521476         1.197183        -0.443688
 C         2.083767         1.447642        -0.311177
 C         2.613707        -0.396003         1.018067
 H        -0.289966         0.370171         1.174381
 H        -0.815851        -0.228562        -0.372545
 H         0.069899        -1.361958         0.697677
 H         1.764728        -1.852700        -1.552981
 H         2.768099        -0.477405        -1.918280
 H         3.760866        -3.064549        -0.575748
 H         4.778359         0.195130         0.964894
 H         1.963554         2.098380         0.513851
 H         1.614888         2.117018        -1.077872
 H         2.375021        -0.390886         2.084013
