19
Iteration:  4618charge 0 multiplicity 1
 C         0.023906        -0.012927         0.280789
 C         1.486179         0.010237         0.049628
 C         2.018998        -1.164962        -0.907892
 C         3.126906        -1.378504         0.052109
 O         3.969519        -2.488841        -0.011890
 C         3.740490        -0.012622         0.348731
 O         3.556825         1.166092        -0.416684
 C         2.094792         1.431134        -0.344847
 C         2.616283        -0.473539         1.089273
 H        -0.335996         0.723595         1.060304
 H        -0.645933         0.333944        -0.532982
 H        -0.267545        -1.033937         0.658724
 H         1.217878        -1.922745        -0.988934
 H         2.373974        -0.786117        -1.884500
 H         4.146470        -2.901311         0.917929
 H         4.836563        -0.146012         0.570308
 H         1.899171         2.200557         0.368578
 H         1.756844         1.782290        -1.344227
 H         2.446808        -0.677258         2.168103
