19
Iteration:  2710charge 0 multiplicity 1
 C         0.033697         0.144824         0.403659
 C         1.444264        -0.029487         0.039272
 C         2.057803        -1.186814        -0.951087
 C         3.220856        -1.351280         0.047002
 O         4.098457        -2.434654         0.058765
 C         3.788298         0.015064         0.371786
 O         3.481392         1.078300        -0.485307
 C         2.080003         1.352223        -0.380825
 C         2.452003        -0.493562         1.079662
 H        -0.099941         0.926092         1.074471
 H        -0.569598         0.408680        -0.548719
 H        -0.355124        -0.712175         0.893238
 H         1.355708        -1.973568        -0.868356
 H         2.187437        -0.923366        -2.021606
 H         3.636345        -3.312315        -0.158451
 H         4.755982         0.003776         0.850231
 H         1.856352         1.995447         0.414212
 H         1.801309         1.783825        -1.377879
 H         2.375441        -0.711390         2.207265
