19
Iteration:  3419
 C         0.053734        -0.046948         0.432677
 C         1.532933         0.034333        -0.081503
 C         2.008238        -1.218299        -1.054545
 C         3.178760        -1.388106        -0.023322
 O         3.992153        -2.479996         0.162911
 C         3.766856        -0.006393         0.365687
 O         3.557113         1.223461        -0.382839
 C         2.109892         1.464428        -0.411372
 C         2.490011        -0.484146         1.023226
 H        -0.061897         0.687761         1.222985
 H        -0.682423         0.226770        -0.407388
 H        -0.118416        -0.933873         0.939365
 H         1.284832        -2.150847        -0.861899
 H         2.071579        -0.917101        -2.101713
 H         3.341903        -3.186961         0.409365
 H         4.793227        -0.116195         0.929200
 H         1.775108         2.033052         0.512066
 H         1.900281         2.007945        -1.260414
 H         2.368506        -0.604910         2.076529
