19
Iteration:   455
 C        -0.082572         0.045843         0.357383
 C         1.459053        -0.050681         0.006868
 C         1.941057        -1.130631        -0.971714
 C         3.174029        -1.271791        -0.094651
 O         3.932695        -2.440049        -0.021738
 C         3.788820        -0.032302         0.432446
 O         3.695775         1.167945        -0.228559
 C         2.234493         1.237048        -0.497976
 C         2.439599        -0.435561         1.123211
 H        -0.213434         0.840857         1.100358
 H        -0.633385         0.229655        -0.636541
 H        -0.357561        -0.885311         0.864016
 H         1.310290        -1.991525        -0.800147
 H         2.112860        -1.014364        -2.088000
 H         4.419226        -2.432122         0.772498
 H         4.674027        -0.116790         1.017384
 H         1.887135         2.259345        -0.021521
 H         2.187415         1.343848        -1.546151
 H         2.244639        -1.024903         2.030434
