19
Iteration:  2861charge 0 multiplicity 1
 C        -0.036886        -0.119810         0.315713
 C         1.503502        -0.007228         0.077459
 C         2.079919        -1.052991        -0.920411
 C         3.227119        -1.316570        -0.034826
 O         3.877706        -2.452596         0.227780
 C         3.840799         0.015798         0.284474
 O         3.471064         1.031913        -0.607055
 C         2.176814         1.489546        -0.217636
 C         2.556650        -0.444253         1.065928
 H        -0.447600         0.393141         1.152519
 H        -0.617361         0.109130        -0.740482
 H        -0.259897        -1.213374         0.389729
 H         1.428917        -1.873004        -1.081034
 H         2.464488        -0.644386        -1.993231
 H         3.676800        -3.347634        -0.193150
 H         4.875285         0.113164         0.737991
 H         1.967017         2.090700         0.727522
 H         1.718237         2.080026        -1.029858
 H         2.576841        -0.554419         2.206072
