19
Iteration:  3929charge 0 multiplicity 1
 C         0.105010         0.211801         0.330118
 C         1.433787        -0.091861         0.006619
 C         1.959015        -1.259596        -0.863515
 C         3.260229        -1.314104        -0.071683
 O         4.053110        -2.539831        -0.050866
 C         3.722943         0.071217         0.410847
 O         3.456739         1.221833        -0.341284
 C         2.108630         1.300138        -0.473830
 C         2.554113        -0.557970         1.127049
 H         0.118184         0.977942         1.150478
 H        -0.348188         0.672075        -0.582131
 H        -0.592196        -0.571222         0.897526
 H         1.331492        -2.063343        -0.537860
 H         2.027701        -0.908194        -1.946213
 H         4.136517        -2.934666         0.853305
 H         4.725380         0.056599         0.938232
 H         1.611536         2.156079         0.194925
 H         1.835498         1.386266        -1.497449
 H         2.413090        -0.806946         2.161981
