19
Iteration:     8
 C         0.034627         0.069785         0.312597
 C         1.557153        -0.005776        -0.009948
 C         2.064832        -1.099468        -0.954525
 C         3.201341        -1.285232        -0.007640
 O         3.860298        -2.582557         0.117358
 C         3.785385         0.049132         0.426132
 O         3.584050         1.169203        -0.329376
 C         2.090213         1.318689        -0.427253
 C         2.488053        -0.572167         1.044492
 H        -0.226692         0.912838         1.073891
 H        -0.682669         0.263334        -0.549547
 H        -0.296067        -0.895413         0.587354
 H         1.387537        -1.893092        -0.910271
 H         2.213281        -0.731148        -2.038328
 H         4.689298        -2.682090        -0.453772
 H         4.542236         0.186729         1.184332
 H         1.712511         2.096303         0.251702
 H         1.942701         1.685873        -1.414152
 H         2.088626        -0.839494         2.016412
