19
Iteration:  3183
 C         0.042173         0.177641         0.402969
 C         1.487246        -0.007960         0.036025
 C         2.053436        -1.215182        -0.950839
 C         3.249376        -1.385289         0.004885
 O         4.134229        -2.476284         0.042367
 C         3.713398        -0.023762         0.418900
 O         3.434928         1.134405        -0.439589
 C         2.075420         1.330941        -0.445828
 C         2.462789        -0.461871         1.131970
 H        -0.075738         1.067289         1.159050
 H        -0.456306         0.561640        -0.550667
 H        -0.506597        -0.726244         0.790004
 H         1.535777        -2.214946        -0.982492
 H         2.181438        -0.936969        -2.097376
 H         3.587058        -3.281175        -0.098444
 H         4.699341        -0.015015         0.788495
 H         1.834575         2.119056         0.370538
 H         1.698383         1.692913        -1.404129
 H         2.533310        -0.576995         2.159727
