19
Iteration:   376charge 0 multiplicity 1
 C        -0.065772        -0.025532         0.217827
 C         1.502293         0.062982         0.060273
 C         1.988296        -1.025377        -0.959190
 C         3.214114        -1.295809        -0.126666
 O         3.865967        -2.478901         0.261158
 C         3.800213        -0.058491         0.383859
 O         3.619065         1.132638        -0.364723
 C         2.132173         1.397202        -0.319042
 C         2.552111        -0.558587         0.998052
 H        -0.506920         0.428999         1.025514
 H        -0.644278         0.292351        -0.618630
 H        -0.241240        -1.178750         0.286056
 H         1.372692        -1.989108        -0.866468
 H         2.177038        -0.785640        -1.992067
 H         4.446196        -2.749753        -0.421584
 H         4.789287        -0.189466         0.930508
 H         2.001978         2.231425         0.485314
 H         2.019131         1.823259        -1.203594
 H         2.480942        -1.099755         1.935170
