19
Iteration:  2976
 C         0.037652         0.203048         0.400227
 C         1.515786        -0.057866         0.039156
 C         1.936751        -1.283622        -0.934117
 C         3.229423        -1.367680        -0.045662
 O         4.100225        -2.434674        -0.007918
 C         3.758125         0.009858         0.426483
 O         3.520099         1.242079        -0.217313
 C         2.053906         1.239869        -0.651766
 C         2.510631        -0.492068         1.146003
 H        -0.016772         1.080258         1.152119
 H        -0.538935         0.420855        -0.414009
 H        -0.456689        -0.664424         0.875833
 H         1.173813        -2.089342        -0.649027
 H         2.023891        -1.229561        -1.978114
 H         3.701728        -3.343895        -0.184462
 H         4.828812        -0.002243         0.844547
 H         1.690420         2.174400        -0.194268
 H         1.971734         1.377717        -1.737106
 H         2.336329        -0.461765         2.283938
