19
Iteration:   704charge 0 multiplicity 1
 C         0.025685         0.078441         0.248205
 C         1.517846         0.022161         0.043374
 C         2.204791        -1.002123        -1.000688
 C         3.219056        -1.437965         0.038373
 O         3.819170        -2.675380         0.084972
 C         3.751223         0.010367         0.373268
 O         3.449329         1.151804        -0.449652
 C         2.077339         1.417322        -0.296226
 C         2.544935        -0.509289         1.137945
 H        -0.046755         0.760964         1.042720
 H        -0.486964         0.458841        -0.638439
 H        -0.252161        -1.020767         0.388373
 H         1.520545        -1.773791        -1.415759
 H         2.692612        -0.557177        -1.876163
 H         4.565744        -2.676361         0.661313
 H         4.748480         0.123698         0.836832
 H         1.922681         2.254705         0.338090
 H         1.613512         1.686038        -1.357817
 H         2.463128        -0.641381         2.280450
