19
Iteration:  4420
 C         0.057475        -0.091388         0.519592
 C         1.487371         0.000662         0.028550
 C         2.111171        -1.041394        -0.993446
 C         3.191841        -1.285167         0.047075
 O         3.787139        -2.565243         0.027409
 C         3.804957         0.051656         0.369414
 O         3.575452         1.142615        -0.525474
 C         2.091410         1.363716        -0.480206
 C         2.526461        -0.447289         1.084876
 H        -0.096889         0.398838         1.412471
 H        -0.690201         0.154535        -0.334093
 H        -0.233297        -1.150494         0.952227
 H         1.426370        -2.001198        -0.930276
 H         2.401995        -0.803377        -2.007868
 H         4.294641        -2.644792         0.821670
 H         4.643216        -0.002419         1.056561
 H         2.193663         2.255372         0.298006
 H         1.752531         1.770636        -1.377276
 H         2.391608        -0.629691         2.108856
