19
Iteration:    71
 C         0.016752         0.099971         0.323813
 C         1.523206         0.039629         0.016350
 C         1.823021        -1.202905        -0.932200
 C         3.149730        -1.400754        -0.142157
 O         4.029906        -2.476059         0.075135
 C         3.679195         0.014096         0.485906
 O         3.621069         1.190302        -0.191263
 C         2.245087         1.349215        -0.566383
 C         2.503336        -0.594467         1.109595
 H        -0.268005         0.895557         1.030041
 H        -0.596327         0.333493        -0.576690
 H        -0.364523        -0.966320         0.617353
 H         0.965755        -2.013631        -0.757372
 H         1.852280        -1.074142        -2.019542
 H         4.873601        -2.064718        -0.196310
 H         4.661067        -0.057135         0.991424
 H         1.846744         2.360193        -0.215044
 H         2.254733         1.443305        -1.741687
 H         2.217281        -0.750299         2.153088
