19
Iteration:   768charge 0 multiplicity 1
 C         0.013646        -0.040353         0.345215
 C         1.497006         0.083992         0.019501
 C         1.900477        -1.136754        -0.974723
 C         3.134221        -1.306525        -0.059628
 O         3.972017        -2.506572         0.009239
 C         3.753143        -0.048767         0.471685
 O         3.674071         1.168338        -0.243588
 C         2.230865         1.405382        -0.537062
 C         2.441078        -0.467904         1.071345
 H        -0.587753         0.629726         1.045802
 H        -0.730612        -0.092916        -0.460989
 H         0.021551        -1.135004         0.729184
 H         1.085345        -1.937345        -0.865019
 H         2.040086        -0.868888        -2.044784
 H         4.467844        -2.552974         0.875944
 H         4.700507        -0.240294         0.990976
 H         1.914148         2.315853        -0.006587
 H         2.184919         1.544169        -1.625847
 H         2.065349        -0.919021         2.029687
