19
Iteration:  2456charge 0 multiplicity 1
 C        -0.006686        -0.213431         0.309915
 C         1.509492         0.014581         0.011405
 C         2.035914        -1.040040        -1.023097
 C         3.188815        -1.300811        -0.026390
 O         3.792189        -2.597213         0.167754
 C         3.825016         0.062550         0.376390
 O         3.528657         1.125329        -0.561708
 C         2.210734         1.448649        -0.218866
 C         2.547422        -0.388815         1.057638
 H        -0.225391         0.253544         1.155947
 H        -0.725298         0.190871        -0.552214
 H        -0.183958        -1.322220         0.510941
 H         1.474492        -1.861092        -1.243157
 H         2.391647        -0.554381        -1.990076
 H         4.506638        -2.465821         0.773020
 H         4.738971         0.100959         1.017285
 H         2.007630         1.951297         0.734025
 H         1.913829         1.988800        -1.185973
 H         2.370831        -0.532645         2.186754
