19
Iteration:  4525
 C         0.023266        -0.003276         0.402942
 C         1.570835         0.065864         0.078487
 C         1.993106        -1.092570        -0.986990
 C         3.142588        -1.365657         0.006418
 O         4.022831        -2.511482         0.116547
 C         3.735459        -0.048532         0.367049
 O         3.505223         1.160737        -0.396120
 C         2.097635         1.379806        -0.461047
 C         2.559575        -0.475832         1.114755
 H        -0.456240         0.733277         1.108306
 H        -0.567859         0.192515        -0.487910
 H        -0.107229        -1.034031         0.787434
 H         1.199284        -1.845416        -0.907418
 H         2.142088        -0.730680        -2.014091
 H         3.905552        -2.962173        -0.685646
 H         4.782946        -0.130808         0.774796
 H         1.940747         2.296438         0.069876
 H         1.776259         1.535630        -1.584702
 H         2.607877        -0.764095         2.117770
