19
Iteration:  3840
 C         0.045494        -0.168406         0.418642
 C         1.513507         0.055675        -0.041375
 C         2.145267        -1.078122        -0.975279
 C         3.208805        -1.377423         0.028805
 O         3.742871        -2.658335         0.092159
 C         3.842998         0.034110         0.377623
 O         3.536498         1.291461        -0.537410
 C         2.040263         1.392910        -0.348015
 C         2.625616        -0.399686         1.061917
 H        -0.223017         0.444168         1.194181
 H        -0.537951        -0.102833        -0.510180
 H        -0.128377        -1.166239         0.985246
 H         1.544551        -1.979392        -1.268726
 H         2.557681        -0.653950        -1.960715
 H         3.364410        -2.868429         1.021182
 H         4.842888         0.048164         0.749752
 H         1.935639         2.164993         0.561310
 H         1.688787         1.987185        -1.143286
 H         2.557552        -0.318110         2.171124
