19
Iteration:  1624
 C         0.040101        -0.140287         0.368383
 C         1.502734         0.071040        -0.026480
 C         1.981188        -1.040026        -1.013193
 C         3.206863        -1.335422        -0.066796
 O         3.812650        -2.560157         0.178494
 C         3.786721        -0.018331         0.431607
 O         3.624968         1.243852        -0.321522
 C         2.138750         1.401861        -0.433197
 C         2.520565        -0.493716         1.018252
 H        -0.181258         0.445377         1.201692
 H        -0.732698        -0.048203        -0.446672
 H        -0.055226        -1.181951         0.642971
 H         1.322043        -1.829047        -0.926084
 H         2.245883        -0.944134        -2.108588
 H         4.601280        -2.623708        -0.331265
 H         4.731238        -0.003581         0.986414
 H         1.912965         2.187728         0.319544
 H         1.992084         1.662230        -1.395541
 H         2.173698        -0.745748         1.964582
