19
Iteration:  1616charge 0 multiplicity 1
 C         0.068605        -0.047493         0.311175
 C         1.548447         0.051028        -0.024860
 C         2.002758        -1.115581        -0.930370
 C         3.221144        -1.305578        -0.093989
 O         3.833743        -2.572847         0.135719
 C         3.722565         0.033878         0.420639
 O         3.579284         1.254487        -0.286550
 C         2.159359         1.375678        -0.440976
 C         2.492925        -0.557118         1.055386
 H        -0.125822         0.522023         1.207384
 H        -0.644018         0.116468        -0.452273
 H         0.064087        -1.095746         0.776208
 H         1.263634        -1.931224        -0.841689
 H         2.119587        -0.785113        -2.019384
 H         4.496270        -2.731144        -0.542021
 H         4.650500         0.042923         1.128568
 H         1.741787         2.239652         0.076965
 H         1.994460         1.528404        -1.608124
 H         2.376563        -0.831850         2.085662
