19
Iteration:  1893charge 0 multiplicity 1
 C         0.107493        -0.135371         0.373489
 C         1.563251        -0.005175        -0.088026
 C         2.035313        -1.159808        -1.017417
 C         3.159658        -1.316412        -0.055038
 O         3.770052        -2.553236         0.092411
 C         3.773812         0.049868         0.400937
 O         3.553038         1.223576        -0.300702
 C         2.130118         1.419912        -0.387146
 C         2.569004        -0.477334         1.029614
 H        -0.160209         0.816911         1.084901
 H        -0.553877         0.070761        -0.462696
 H        -0.099115        -1.075972         0.923048
 H         1.191468        -2.001513        -0.887687
 H         2.314537        -0.943125        -2.057922
 H         4.569136        -2.513519         0.722072
 H         4.764624         0.126228         1.051723
 H         1.661310         2.212959         0.274975
 H         1.899549         1.755285        -1.530270
 H         2.313369        -0.489609         2.088946
