19
Iteration:  3771charge 0 multiplicity 1
 C        -0.021758         0.073629         0.394556
 C         1.482607         0.015634         0.011398
 C         1.955790        -1.130670        -0.909327
 C         3.168757        -1.364498        -0.004405
 O         4.107990        -2.407132         0.009862
 C         3.724342        -0.037758         0.473492
 O         3.579672         1.103845        -0.421515
 C         2.129585         1.338213        -0.506360
 C         2.488474        -0.482088         1.138721
 H        -0.148528         0.573796         1.298869
 H        -0.619498         0.455903        -0.489955
 H        -0.395500        -0.900116         0.665372
 H         1.289330        -2.056294        -0.985990
 H         2.236947        -0.852043        -1.863883
 H         3.732037        -3.305831        -0.031413
 H         4.733665        -0.251864         0.969111
 H         1.825606         2.230713         0.157977
 H         1.884410         1.639158        -1.581412
 H         2.471105        -0.431935         2.225173
