19
Iteration:  3250
 C         0.120560        -0.345560         0.416797
 C         1.521684         0.087901        -0.018588
 C         2.063001        -1.019664        -0.994805
 C         3.148014        -1.299210        -0.012785
 O         3.720161        -2.673582         0.200486
 C         3.844900         0.075654         0.260949
 O         3.541432         1.265157        -0.495465
 C         2.151960         1.439019        -0.398836
 C         2.613590        -0.352286         1.079743
 H        -0.266790         0.376575         1.321934
 H        -0.597740        -0.335280        -0.371204
 H         0.306724        -1.470676         0.629985
 H         1.451551        -2.031239        -1.209987
 H         2.416572        -0.699444        -2.054156
 H         3.270827        -2.922093         1.054051
 H         4.855504         0.105238         0.766822
 H         1.723044         2.019226         0.594986
 H         1.822500         2.039090        -1.192884
 H         2.404528        -0.377188         2.137207
