19
Iteration:  4651charge 0 multiplicity 1
 C        -0.019636         0.116422         0.341645
 C         1.447019        -0.031876         0.063138
 C         1.970056        -1.174410        -0.886971
 C         3.269531        -1.314230        -0.048817
 O         3.977535        -2.499006        -0.076385
 C         3.736814         0.050260         0.521194
 O         3.597676         1.116872        -0.397223
 C         2.078918         1.282782        -0.412232
 C         2.498453        -0.480185         1.062454
 H        -0.033707         1.009621         1.065369
 H        -0.599003         0.230648        -0.595709
 H        -0.444781        -0.714772         0.916811
 H         1.461219        -2.122762        -0.792309
 H         2.147143        -1.026288        -1.965231
 H         4.896713        -2.484091         0.227873
 H         4.698460         0.004036         1.136810
 H         1.888429         2.120430         0.226360
 H         1.938710         1.542211        -1.476751
 H         2.205529        -0.638574         2.099586
