19
Iteration:  2886
 C         0.018270        -0.026222         0.255110
 C         1.561254        -0.047395         0.103084
 C         2.008783        -1.149457        -0.880188
 C         3.231615        -1.329174         0.032432
 O         3.944332        -2.559168         0.069625
 C         3.810214         0.067945         0.353906
 O         3.504011         1.162264        -0.513447
 C         2.110487         1.399619        -0.388783
 C         2.573864        -0.381956         1.182201
 H        -0.260603         0.484477         1.159437
 H        -0.641816         0.255017        -0.642296
 H        -0.239672        -1.055318         0.437102
 H         1.304096        -1.977530        -0.800924
 H         2.075116        -0.867142        -1.977254
 H         3.356507        -3.318430        -0.238076
 H         4.705007         0.246337         0.878552
 H         1.783002         2.078936         0.473212
 H         1.632394         1.854950        -1.318025
 H         2.486495        -0.554449         2.191514
