19
Iteration:  2493
 C         0.122415        -0.010543         0.432394
 C         1.567498        -0.020972        -0.020923
 C         2.020061        -1.091047        -1.072201
 C         3.180346        -1.345974        -0.073573
 O         3.950084        -2.549877         0.126531
 C         3.743596         0.040286         0.450519
 O         3.488769         1.228165        -0.317441
 C         2.088986         1.340320        -0.469114
 C         2.551838        -0.502198         1.020617
 H        -0.026965         0.932144         1.177041
 H        -0.670036         0.085556        -0.344082
 H        -0.151652        -0.872127         0.989915
 H         1.224186        -2.017908        -1.206609
 H         2.447104        -0.745691        -2.039267
 H         3.374155        -3.079297         0.665313
 H         4.743761        -0.050803         0.908479
 H         1.730193         2.263126         0.128894
 H         1.864755         1.632499        -1.476836
 H         2.289303        -0.722679         1.993614
