19
Iteration:   782charge 0 multiplicity 1
 C         0.120329         0.014963         0.325679
 C         1.544430         0.042404        -0.023602
 C         1.970321        -1.089472        -0.967541
 C         3.117501        -1.387167        -0.019374
 O         3.949272        -2.496821        -0.034998
 C         3.661259        -0.044930         0.472783
 O         3.562200         1.177004        -0.251305
 C         2.210335         1.319431        -0.483132
 C         2.439042        -0.513216         1.125939
 H         0.004281         0.811564         0.922436
 H        -0.427505         0.175096        -0.635721
 H        -0.186067        -0.812595         0.893457
 H         1.307996        -1.890238        -0.977703
 H         2.237448        -0.818894        -2.024324
 H         4.475046        -2.356150         0.727620
 H         4.666122        -0.036345         0.970203
 H         1.868038         2.174795        -0.040199
 H         1.967454         1.376013        -1.631454
 H         2.279789        -0.419896         2.163630
