19
Iteration:  4114
 C         0.074573         0.188408         0.462664
 C         1.542402        -0.015638         0.057879
 C         2.016000        -1.115845        -0.854991
 C         3.200453        -1.350748        -0.008016
 O         4.012337        -2.495947        -0.100861
 C         3.731304         0.005686         0.462949
 O         3.472056         1.127432        -0.372368
 C         2.066557         1.225890        -0.624391
 C         2.475741        -0.525930         1.190094
 H        -0.078758         0.965670         1.178391
 H        -0.353790         0.543702        -0.483791
 H        -0.427775        -0.763874         0.888814
 H         1.250335        -2.055566        -0.837883
 H         2.196334        -0.717335        -1.822151
 H         4.898260        -2.297291         0.372801
 H         4.725535        -0.180668         0.757279
 H         1.713657         2.206368        -0.165819
 H         1.979640         1.156036        -1.855109
 H         2.196923        -0.712552         2.258767
