19
Iteration:  1343
 C        -0.086322         0.085383         0.245331
 C         1.511449         0.002191         0.067012
 C         1.877475        -1.229299        -0.860640
 C         3.165892        -1.308845        -0.145175
 O         3.957871        -2.470149        -0.055733
 C         3.769220        -0.059790         0.470461
 O         3.624937         1.246131        -0.148846
 C         2.223399         1.260052        -0.515084
 C         2.514995        -0.463233         1.143870
 H        -0.251178         0.784257         1.058316
 H        -0.458931         0.549849        -0.704914
 H        -0.429677        -1.017214         0.546877
 H         1.096407        -2.090203        -0.845234
 H         2.081844        -1.023442        -1.951303
 H         4.858186        -2.086289        -0.171237
 H         4.811609        -0.317136         0.725168
 H         1.740364         2.240317        -0.091959
 H         2.200112         1.049779        -1.502572
 H         2.449528        -0.745222         2.305188
