19
Iteration:  4850charge 0 multiplicity 1
 C        -0.043791         0.110350         0.406212
 C         1.540041        -0.049447         0.082260
 C         1.985226        -1.097808        -0.975765
 C         3.265308        -1.291867        -0.124785
 O         4.025409        -2.480619         0.087093
 C         3.762605         0.005434         0.433226
 O         3.557243         1.207397        -0.304276
 C         2.124902         1.232025        -0.505054
 C         2.466745        -0.536100         1.117979
 H        -0.147242         0.943237         1.160544
 H        -0.540270         0.463000        -0.462250
 H        -0.387678        -0.795837         0.682593
 H         1.341922        -1.982776        -1.012516
 H         2.125890        -0.701144        -2.100506
 H         3.461618        -3.193092        -0.399465
 H         4.788908        -0.121924         0.887570
 H         1.668138         2.125595        -0.117768
 H         2.055682         1.129071        -1.666654
 H         2.245125        -0.766749         2.259654
