19
Iteration:   570charge 0 multiplicity 1
 C        -0.020353        -0.009958         0.258109
 C         1.447325         0.045118        -0.012770
 C         2.021733        -1.135397        -1.026054
 C         3.074615        -1.394263         0.045173
 O         3.939382        -2.544681         0.112098
 C         3.776110        -0.120833         0.367543
 O         3.639451         1.175320        -0.317724
 C         2.201758         1.445647        -0.305660
 C         2.499235        -0.438247         1.051508
 H        -0.342161         0.572655         1.202618
 H        -0.715639         0.362346        -0.482800
 H        -0.464358        -1.061001         0.541897
 H         1.137686        -1.887409        -1.022968
 H         2.466253        -0.987792        -1.993242
 H         4.683539        -2.168988        -0.309977
 H         4.760344        -0.170106         0.847577
 H         1.905646         2.278107         0.347841
 H         2.104203         1.866131        -1.476351
 H         2.336145        -0.410614         2.063150
