19
Iteration:  4382
 C         0.049760        -0.081715         0.352559
 C         1.578951         0.003523         0.088012
 C         2.088271        -1.161866        -0.949508
 C         3.188938        -1.367730         0.010361
 O         3.725423        -2.628262         0.089596
 C         3.817795         0.047369         0.245719
 O         3.534495         1.272769        -0.427244
 C         2.025197         1.393461        -0.386243
 C         2.688567        -0.397481         1.080635
 H        -0.166766         0.707436         1.171477
 H        -0.552160         0.191840        -0.464934
 H        -0.219323        -1.049712         0.615662
 H         1.392270        -1.921446        -0.941414
 H         2.292159        -0.858493        -2.018337
 H         4.363658        -2.734177         0.792922
 H         4.826585         0.124534         0.618161
 H         1.720921         2.083894         0.461139
 H         1.459353         1.709457        -1.374971
 H         2.609195        -0.598415         2.194783
