19
Iteration:   621
 C        -0.019508         0.225405         0.323561
 C         1.450656        -0.078486         0.036528
 C         2.127412        -1.114061        -1.002705
 C         3.279716        -1.302488        -0.068195
 O         3.852785        -2.594108         0.099076
 C         3.785525        -0.011299         0.476618
 O         3.524258         1.262792        -0.162728
 C         2.090911         1.244710        -0.568425
 C         2.583566        -0.577415         1.077627
 H        -0.299657         1.069580         1.012960
 H        -0.566383         0.326783        -0.673057
 H        -0.477067        -0.528234         0.840505
 H         1.588974        -2.028436        -1.084342
 H         2.382516        -0.683864        -2.030191
 H         3.928078        -3.029401        -0.778129
 H         4.816183         0.143151         0.893676
 H         1.752195         2.153759        -0.019676
 H         1.981517         1.366997        -1.555320
 H         2.419095        -0.932992         2.083157
