19
Iteration:  3507charge 0 multiplicity 1
 C         0.057278         0.023912         0.356380
 C         1.543011        -0.013370        -0.019028
 C         1.938491        -1.319621        -0.874483
 C         3.200725        -1.295406        -0.050171
 O         3.990652        -2.462233         0.014769
 C         3.724140         0.088988         0.421482
 O         3.585464         1.198449        -0.327510
 C         2.161597         1.323799        -0.512349
 C         2.534550        -0.433764         1.096274
 H        -0.132526         0.842678         1.088874
 H        -0.748534         0.224478        -0.453892
 H        -0.245797        -0.875004         0.874266
 H         1.076918        -2.015188        -0.547013
 H         2.005360        -1.167738        -1.971530
 H         3.406111        -3.223758         0.037514
 H         4.667663        -0.019675         1.031748
 H         1.727877         2.120495         0.202662
 H         1.975733         1.614581        -1.492042
 H         2.282881        -0.574544         2.167743
