19
Iteration:  3326
 C        -0.015001         0.213285         0.344121
 C         1.500224        -0.001547        -0.018864
 C         1.922726        -1.303945        -0.827084
 C         3.202954        -1.433318        -0.004673
 O         4.176996        -2.333656        -0.021674
 C         3.727924        -0.051777         0.361763
 O         3.553512         1.139180        -0.341297
 C         2.167885         1.316925        -0.486459
 C         2.413729        -0.462401         1.146164
 H        -0.181011         0.897457         1.272969
 H        -0.546986         0.533300        -0.503573
 H        -0.353474        -0.815253         0.756784
 H         1.117501        -2.155595        -0.621841
 H         1.980416        -1.078490        -1.976133
 H         3.794217        -3.192477        -0.167297
 H         4.738457        -0.171316         0.853389
 H         1.732258         2.073912         0.212319
 H         1.807905         1.468601        -1.482507
 H         2.327826        -0.574312         2.237288
