19
Iteration:  3143
 C        -0.046125         0.188474         0.285796
 C         1.424823        -0.098035         0.120486
 C         1.873866        -1.273322        -0.775306
 C         3.181430        -1.287635        -0.032100
 O         4.176731        -2.335329        -0.110639
 C         3.699002        -0.005896         0.446413
 O         3.613032         1.109136        -0.351887
 C         2.167184         1.260889        -0.533624
 C         2.545644        -0.455216         1.210128
 H        -0.440408         0.748477         1.143644
 H        -0.372318         0.573276        -0.585031
 H        -0.531330        -0.801703         0.388178
 H         1.165002        -2.078238        -0.483726
 H         1.856559        -1.153091        -1.776664
 H         3.708276        -3.130495        -0.419195
 H         4.740253        -0.187324         0.820155
 H         1.824027         2.151836        -0.059824
 H         2.041238         1.324292        -1.607784
 H         2.374391        -0.577874         2.277395
