19
Iteration:  2179charge 0 multiplicity 1
 C        -0.091909         0.083703         0.233431
 C         1.469163         0.005224         0.087840
 C         1.998459        -1.147104        -0.861890
 C         3.205716        -1.329401        -0.001043
 O         3.993635        -2.434871        -0.157552
 C         3.793534        -0.055705         0.448360
 O         3.553916         1.127583        -0.253178
 C         2.155170         1.265406        -0.545926
 C         2.497861        -0.455057         1.238997
 H        -0.385124         0.729472         1.112694
 H        -0.650181         0.368943        -0.690572
 H        -0.345768        -0.900377         0.511342
 H         1.328537        -2.066315        -0.616474
 H         2.020005        -0.949724        -1.948648
 H         4.830032        -2.264232         0.305135
 H         4.756370        -0.109824         1.009524
 H         1.822358         2.203975        -0.107385
 H         2.110992         1.251195        -1.605913
 H         2.552435        -0.557187         2.359324
