19
Iteration:  1083
 C         0.105697        -0.109200         0.260917
 C         1.545772         0.106789        -0.013600
 C         2.148808        -0.960151        -1.138389
 C         3.145442        -1.384681        -0.024029
 O         3.842117        -2.600050         0.254125
 C         3.802310        -0.073586         0.434692
 O         3.529988         1.153856        -0.441369
 C         2.093951         1.497744        -0.251737
 C         2.486619        -0.512626         1.079434
 H        -0.341355         0.514524         1.105526
 H        -0.490763         0.091266        -0.522861
 H        -0.065966        -1.139829         0.654306
 H         1.357253        -1.819989        -1.302684
 H         2.292106        -0.500636        -2.064156
 H         3.860981        -3.091500        -0.545280
 H         4.723557        -0.085210         1.002888
 H         1.943360         2.216324         0.612356
 H         1.696341         2.049397        -1.225557
 H         2.267028        -0.673636         2.075570
