19
Iteration:  3154charge 0 multiplicity 1
 C        -0.042522         0.195481         0.293623
 C         1.452652        -0.030151         0.088449
 C         1.843045        -1.279661        -0.808501
 C         3.214028        -1.323669         0.029035
 O         4.156682        -2.289590        -0.067158
 C         3.798752        -0.042615         0.478385
 O         3.553384         1.124954        -0.416891
 C         2.178384         1.223306        -0.512657
 C         2.469789        -0.517015         1.158977
 H        -0.177112         0.938276         1.102319
 H        -0.360616         0.672753        -0.527650
 H        -0.669655        -0.713481         0.380554
 H         1.460811        -2.290455        -0.511142
 H         1.737480        -1.136446        -1.792090
 H         3.823752        -3.082532        -0.613650
 H         4.805010        -0.031022         1.015317
 H         1.868065         2.002129         0.151453
 H         1.793635         1.501845        -1.464071
 H         2.535448        -0.734680         2.232003
