19
Iteration:  4783
 C        -0.097669        -0.059031         0.319941
 C         1.452687         0.015383         0.048648
 C         2.035761        -1.029800        -0.972317
 C         3.268506        -1.310161        -0.018047
 O         3.944720        -2.491386        -0.002422
 C         3.819691         0.019833         0.460695
 O         3.576242         1.097364        -0.442510
 C         2.142707         1.364716        -0.366641
 C         2.532877        -0.520178         1.138587
 H        -0.413781         0.743771         1.058701
 H        -0.671026         0.128229        -0.571748
 H        -0.288126        -0.978976         0.685009
 H         1.326156        -1.802953        -1.148184
 H         2.294596        -0.691338        -2.038402
 H         3.671707        -2.869806         0.792888
 H         4.823976        -0.039384         0.820415
 H         2.021464         2.147541         0.354605
 H         1.783047         1.641043        -1.446159
 H         2.405499        -0.550269         2.232543
