19
Iteration:  1735
 C         0.049279         0.225757         0.343438
 C         1.479322         0.023575        -0.048219
 C         1.893282        -1.223150        -0.846522
 C         3.231030        -1.370077        -0.044939
 O         4.107244        -2.428981         0.001089
 C         3.695692        -0.029094         0.477578
 O         3.512769         1.214538        -0.134793
 C         2.185016         1.248048        -0.637765
 C         2.460871        -0.584846         1.075050
 H        -0.136902         0.952555         1.078909
 H        -0.590200         0.398749        -0.603052
 H        -0.255980        -0.787702         0.856610
 H         1.257642        -1.997817        -0.496809
 H         1.886786        -1.243328        -1.964966
 H         4.360442        -2.698247        -0.949351
 H         4.671022        -0.184972         1.095238
 H         1.520212         2.145086        -0.282639
 H         2.297790         1.186128        -1.670945
 H         2.277835        -0.622498         2.218892
