19
Iteration:  3882charge 0 multiplicity 1
 C         0.023654        -0.004598         0.397836
 C         1.535499         0.015509         0.061258
 C         1.954617        -1.066911        -0.951320
 C         3.207681        -1.305492        -0.054456
 O         3.963653        -2.464914         0.018297
 C         3.752348        -0.038372         0.424272
 O         3.599880         1.106675        -0.470838
 C         2.101728         1.372139        -0.498013
 C         2.528784        -0.503328         1.162361
 H        -0.311453         0.495752         1.261688
 H        -0.579806         0.249347        -0.563337
 H        -0.243631        -1.120967         0.757551
 H         1.203301        -1.907745        -0.818282
 H         2.174647        -0.727410        -1.862174
 H         4.105631        -2.756758         0.966143
 H         4.688723        -0.068480         0.943996
 H         1.774415         2.142090         0.244041
 H         1.778154         1.609207        -1.503641
 H         2.286555        -0.614376         2.255825
