19
Iteration:  4349
 C         0.002746        -0.022916         0.393015
 C         1.533601         0.044085         0.060687
 C         1.957928        -1.112859        -0.930068
 C         3.219118        -1.322243        -0.108082
 O         3.932503        -2.501590         0.059359
 C         3.738407        -0.014345         0.414392
 O         3.580450         1.085455        -0.452063
 C         2.080128         1.352123        -0.426710
 C         2.573586        -0.445215         1.099098
 H        -0.282028         0.758372         1.187143
 H        -0.537147         0.095547        -0.465674
 H        -0.380351        -0.809687         0.924049
 H         1.320640        -1.879804        -0.758883
 H         1.987963        -0.819041        -2.045799
 H         4.697479        -2.446087         0.585599
 H         4.689768         0.064149         0.866829
 H         1.901485         2.236234         0.285197
 H         1.797653         1.726403        -1.544073
 H         2.469630        -0.821786         2.169584
