19
Iteration:  2002
 C        -0.058970         0.021832         0.324810
 C         1.506281        -0.011108         0.023588
 C         1.995302        -1.125296        -1.027636
 C         3.201097        -1.366522        -0.018500
 O         3.962317        -2.520850         0.114838
 C         3.762952        -0.016261         0.395790
 O         3.572308         1.159777        -0.340691
 C         2.148176         1.368404        -0.388470
 C         2.526583        -0.466213         1.073460
 H        -0.334998         0.907823         1.069564
 H        -0.654134         0.320247        -0.534453
 H        -0.517759        -0.939505         0.575805
 H         1.283622        -2.042375        -0.883559
 H         2.075131        -1.010348        -2.065358
 H         4.838362        -2.308882        -0.223700
 H         4.793573        -0.087767         0.908485
 H         1.828612         2.269171         0.292096
 H         1.831303         1.748178        -1.300477
 H         2.464486        -0.746925         2.138544
