19
Iteration:   139charge 0 multiplicity 1
 C        -0.027160        -0.089626         0.244514
 C         1.540221         0.047132         0.036288
 C         2.126927        -0.888802        -1.035708
 C         3.236507        -1.401734        -0.024472
 O         3.777900        -2.598108         0.291847
 C         3.842659         0.035622         0.316339
 O         3.508191         1.138483        -0.433221
 C         2.122479         1.398309        -0.289467
 C         2.566024        -0.556643         1.059733
 H        -0.260809         0.690783         1.131894
 H        -0.653348         0.257778        -0.682479
 H        -0.332947        -1.063677         0.516389
 H         1.332360        -1.641908        -1.221315
 H         2.535927        -0.593413        -2.093698
 H         4.409278        -3.035752        -0.369810
 H         4.749295         0.067402         0.854332
 H         2.006402         2.258418         0.477749
 H         1.508913         1.803751        -1.198427
 H         2.370721        -0.730781         2.124740
