19
Iteration:  1930
 C        -0.086780         0.152294         0.361389
 C         1.455556        -0.032965         0.049484
 C         1.955159        -1.222816        -0.887592
 C         3.220902        -1.349011        -0.014529
 O         4.004511        -2.508685        -0.129490
 C         3.774527         0.033122         0.482116
 O         3.553824         1.203850        -0.180265
 C         2.179339         1.236794        -0.607681
 C         2.520114        -0.519213         1.125073
 H        -0.096168         0.961105         1.002264
 H        -0.617492         0.520905        -0.603778
 H        -0.694610        -0.652076         0.724886
 H         1.379085        -2.087673        -0.767970
 H         2.144695        -1.123132        -2.054386
 H         4.870768        -2.189322         0.272407
 H         4.560372         0.107144         1.150632
 H         1.765444         2.199517        -0.328027
 H         2.306651         1.282110        -1.787862
 H         2.359080        -0.531020         2.208461
