19
Iteration:  1980
 C        -0.000500         0.191766         0.271868
 C         1.465483        -0.016876        -0.038687
 C         1.898233        -1.309359        -0.804992
 C         3.239755        -1.358278         0.004830
 O         4.076301        -2.431032        -0.074228
 C         3.715363        -0.015699         0.475325
 O         3.600027         1.153416        -0.316176
 C         2.147036         1.304496        -0.424143
 C         2.412493        -0.522566         1.100618
 H        -0.198957         0.994637         1.133973
 H        -0.535039         0.613661        -0.559279
 H        -0.458860        -0.803509         0.423568
 H         1.344684        -2.317886        -0.675405
 H         2.015933        -1.179703        -1.825156
 H         4.920897        -2.051533        -0.441525
 H         4.682761        -0.146391         1.119326
 H         1.606158         2.106917         0.153615
 H         2.107410         1.711362        -1.351725
 H         2.299486        -0.577485         2.207130
