19
Iteration:  4535
 C         0.050081        -0.074264         0.431575
 C         1.476599         0.052018         0.026502
 C         2.008506        -1.052752        -0.957705
 C         3.137791        -1.419076         0.001028
 O         4.002248        -2.512171         0.123278
 C         3.787148        -0.057429         0.356567
 O         3.524387         1.163062        -0.400556
 C         2.124520         1.428391        -0.470487
 C         2.548815        -0.446046         1.094574
 H        -0.070112         0.676025         1.293255
 H        -0.570457         0.072648        -0.410520
 H        -0.221857        -1.018173         0.846974
 H         1.244599        -1.771052        -1.092026
 H         2.294055        -0.753448        -2.010118
 H         3.883060        -3.051605        -0.639250
 H         4.832830        -0.132612         0.807601
 H         1.765557         2.226340         0.239451
 H         1.738820         1.685807        -1.534448
 H         2.218430        -0.324127         2.112463
