19
Iteration:  3187charge 0 multiplicity 1
 C         0.025901         0.143792         0.402637
 C         1.513499        -0.001259         0.029595
 C         2.056488        -1.193912        -0.976179
 C         3.227418        -1.373162        -0.008346
 O         4.114917        -2.495632         0.057000
 C         3.740628        -0.045612         0.393213
 O         3.444446         1.144937        -0.442501
 C         2.051980         1.350529        -0.436985
 C         2.484682        -0.458368         1.116764
 H        -0.112816         1.002342         1.176269
 H        -0.488206         0.483483        -0.410585
 H        -0.511771        -0.702969         0.889091
 H         1.505254        -2.204466        -1.066555
 H         2.295304        -0.868157        -1.915387
 H         3.561109        -3.290415         0.075700
 H         4.756265         0.105064         0.953487
 H         1.803498         2.058706         0.322135
 H         1.742251         1.652418        -1.416798
 H         2.436138        -0.495760         2.263383
