19
Iteration:  2956
 C         0.093426         0.244590         0.482283
 C         1.438945        -0.045500        -0.111976
 C         1.877088        -1.322045        -0.897993
 C         3.168410        -1.367342        -0.099165
 O         4.165822        -2.314720         0.039244
 C         3.698465        -0.062011         0.403714
 O         3.512265         1.272884        -0.184307
 C         2.179928         1.206958        -0.595351
 C         2.469940        -0.560845         1.032016
 H         0.165805         1.239324         1.069548
 H        -0.582996         0.359866        -0.247367
 H        -0.187703        -0.545412         1.237884
 H         1.271136        -2.302879        -0.610531
 H         1.878693        -1.228439        -1.906583
 H         3.786637        -3.206816         0.099294
 H         4.684923         0.002484         0.951890
 H         1.715023         2.155322        -0.298585
 H         2.237470         1.184513        -1.705262
 H         2.211571        -0.909453         2.124172
