19
Iteration:  1756
 C        -0.029479         0.277869         0.427983
 C         1.439288        -0.090693         0.010014
 C         1.946368        -1.346033        -0.941087
 C         3.196377        -1.349959        -0.065595
 O         4.110395        -2.444666        -0.045224
 C         3.672426         0.031012         0.560336
 O         3.550802         1.247449        -0.120723
 C         2.235088         1.158656        -0.686439
 C         2.439530        -0.501825         1.081645
 H         0.069430         1.191534         0.949778
 H        -0.721003         0.612633        -0.470545
 H        -0.582090        -0.325009         1.226095
 H         1.374049        -2.176638        -0.876533
 H         2.125252        -1.068830        -2.009043
 H         4.590148        -2.236361        -0.826117
 H         4.726551        -0.107662         1.051562
 H         1.757404         2.224079        -0.438835
 H         2.250998         1.049829        -1.708573
 H         2.174923        -0.964156         2.082779
