19
Iteration:  1978
 C         0.023696         0.212113         0.269535
 C         1.474633        -0.033069        -0.033501
 C         1.890143        -1.311533        -0.800873
 C         3.233630        -1.355144         0.019405
 O         4.086291        -2.424943        -0.091809
 C         3.705741        -0.015507         0.493689
 O         3.585565         1.145187        -0.310551
 C         2.151448         1.300601        -0.435428
 C         2.414537        -0.520940         1.100320
 H        -0.188872         0.958401         1.085086
 H        -0.499376         0.592436        -0.536903
 H        -0.513263        -0.805144         0.397485
 H         1.352864        -2.289536        -0.656781
 H         1.952132        -1.180852        -1.894236
 H         4.882763        -2.075263        -0.431019
 H         4.687701        -0.108066         1.158722
 H         1.601678         2.140080         0.153821
 H         2.064621         1.707868        -1.437120
 H         2.324989        -0.592078         2.197678
