19
Iteration:  1103
 C        -0.036856        -0.033100         0.244159
 C         1.504648        -0.032969         0.055624
 C         2.206020        -0.939653        -0.983207
 C         3.227582        -1.325981         0.006837
 O         3.738415        -2.576566         0.144641
 C         3.814548         0.072805         0.408366
 O         3.524186         1.107881        -0.423284
 C         2.152372         1.313953        -0.307461
 C         2.552192        -0.513588         1.102233
 H        -0.260930         0.604287         1.055338
 H        -0.489286         0.312233        -0.625777
 H        -0.528188        -1.013500         0.570454
 H         1.595686        -1.718460        -1.553764
 H         2.704327        -0.483804        -1.748573
 H         4.057039        -2.840568        -0.726505
 H         4.774733         0.106180         0.893240
 H         1.838997         2.038379         0.439380
 H         1.764734         1.759571        -1.332820
 H         2.428440        -0.574635         2.133855
