19
Iteration:  2462charge 0 multiplicity 1
 C        -0.010604        -0.199312         0.325515
 C         1.551571         0.023225        -0.022481
 C         2.079903        -1.026319        -1.001272
 C         3.161550        -1.305559        -0.042801
 O         3.810620        -2.566915         0.161462
 C         3.790744         0.056114         0.353498
 O         3.535561         1.134290        -0.507810
 C         2.184172         1.426436        -0.264981
 C         2.522274        -0.436772         1.013228
 H        -0.209245         0.444808         1.382963
 H        -0.742466         0.039007        -0.345847
 H        -0.163989        -1.222095         0.630492
 H         1.367950        -1.957896        -1.225012
 H         2.557994        -0.703899        -1.903623
 H         4.359676        -2.516046         1.020217
 H         4.692222        -0.047482         0.921300
 H         2.005523         2.004277         0.683392
 H         1.946983         2.081424        -1.070162
 H         2.423134        -0.461287         2.062026
