19
Iteration:  3196
 C         0.001201         0.065861         0.415703
 C         1.500909        -0.026608         0.012331
 C         2.071710        -1.119034        -0.987424
 C         3.202648        -1.369753        -0.007951
 O         4.040914        -2.513286         0.089625
 C         3.794788        -0.017807         0.351275
 O         3.506101         1.154824        -0.448668
 C         2.024528         1.349729        -0.418412
 C         2.564331        -0.472036         1.085984
 H        -0.063245         0.947139         1.239886
 H        -0.682586         0.283299        -0.346104
 H        -0.384360        -0.876308         0.952764
 H         1.271325        -1.940259        -1.167451
 H         2.517880        -0.704052        -1.894260
 H         3.521789        -3.246002         0.445242
 H         4.628530         0.134838         1.064516
 H         1.675367         2.178274         0.270644
 H         1.752560         1.601191        -1.387350
 H         2.236526        -0.375682         2.097405
