19
Iteration:  3873
 C         0.080967        -0.081917         0.422993
 C         1.529291         0.083582         0.087690
 C         2.003565        -1.027911        -0.929187
 C         3.201312        -1.309663        -0.070192
 O         3.893165        -2.471908         0.041241
 C         3.783517        -0.033298         0.450481
 O         3.562668         1.105441        -0.501796
 C         2.091953         1.331294        -0.466796
 C         2.542210        -0.492570         1.119932
 H        -0.387062         0.573851         1.061383
 H        -0.550363         0.122280        -0.485688
 H        -0.030313        -1.255680         0.471450
 H         1.219810        -1.802583        -1.055583
 H         2.146121        -0.688841        -2.001032
 H         3.945343        -2.710413         1.000801
 H         4.776285        -0.091345         0.969116
 H         1.863722         2.312236         0.236782
 H         1.769870         1.514723        -1.460140
 H         2.301444        -0.549741         2.202264
