19
Iteration:   345charge 0 multiplicity 1
 C         0.129713        -0.134032         0.332937
 C         1.546684        -0.029494        -0.092115
 C         2.116412        -1.016265        -1.084598
 C         3.109773        -1.381485        -0.024611
 O         3.772731        -2.613314         0.245084
 C         3.750174         0.036035         0.367213
 O         3.589141         1.250661        -0.320341
 C         2.109154         1.399570        -0.329861
 C         2.515795        -0.429361         1.026446
 H         0.007641         0.607696         1.120795
 H        -0.697523         0.049575        -0.422647
 H        -0.109166        -1.029969         0.908222
 H         1.407770        -1.857363        -1.317036
 H         2.561397        -0.716644        -2.018731
 H         4.002304        -2.862192        -0.724854
 H         4.720599        -0.080422         0.962726
 H         1.796444         2.078048         0.491544
 H         1.942975         1.963107        -1.269225
 H         2.378961        -0.495354         2.091480
