19
Iteration:  3616charge 0 multiplicity 1
 C        -0.001032        -0.145315         0.316405
 C         1.528957         0.058848         0.045777
 C         2.069001        -1.016086        -0.958695
 C         3.158585        -1.322016         0.053445
 O         3.912140        -2.528842         0.180081
 C         3.794650        -0.007168         0.250878
 O         3.509396         1.147024        -0.497415
 C         2.112766         1.376856        -0.336941
 C         2.603877        -0.438380         1.152897
 H        -0.358863         0.366501         1.265929
 H        -0.567666         0.360957        -0.529511
 H        -0.181903        -1.159816         0.196913
 H         1.323152        -1.874300        -1.077172
 H         2.297323        -0.629540        -1.955857
 H         3.254357        -3.282345        -0.019276
 H         4.716679        -0.049221         0.679968
 H         1.953169         2.292438         0.291500
 H         1.860159         1.711083        -1.304948
 H         2.897843        -0.511138         2.204609
