19
Iteration:  4492
 C        -0.031629         0.160477         0.319737
 C         1.504663        -0.064250         0.025006
 C         1.962558        -1.238211        -0.874094
 C         3.269413        -1.290641        -0.017359
 O         3.921368        -2.548099         0.030637
 C         3.834799         0.038744         0.391376
 O         3.526611         1.205978        -0.382493
 C         2.066018         1.236278        -0.375158
 C         2.612951        -0.437845         1.105912
 H        -0.169348         1.040814         1.052436
 H        -0.490013         0.243818        -0.646414
 H        -0.754637        -0.617898         0.693089
 H         1.472153        -2.176058        -0.539511
 H         1.900873        -1.159244        -1.983298
 H         4.455267        -2.528397        -0.806547
 H         4.873891         0.100738         0.880717
 H         1.686886         1.914127         0.307815
 H         1.774903         1.683536        -1.418952
 H         2.596877        -0.689283         2.145287
