19
Iteration:  1008charge 0 multiplicity 1
 C         0.076834         0.205859         0.277667
 C         1.533270         0.025539         0.041686
 C         2.073515        -1.059021        -0.912659
 C         3.285158        -1.390135        -0.005491
 O         3.928489        -2.649448        -0.075870
 C         3.733329        -0.042374         0.544447
 O         3.489934         1.194658        -0.311112
 C         2.059078         1.340177        -0.501162
 C         2.443230        -0.607667         1.178378
 H        -0.171701         0.924955         1.210796
 H        -0.329154         0.537641        -0.690778
 H        -0.595519        -0.668701         0.512737
 H         1.370644        -1.947129        -1.076284
 H         2.382102        -0.750118        -1.954044
 H         4.934266        -2.457519        -0.108016
 H         4.568815         0.002779         1.247145
 H         1.841750         2.327635        -0.132504
 H         1.725116         1.338660        -1.502369
 H         2.260776        -0.515814         2.170130
