19
Iteration:  2232
 C         0.072081        -0.118150         0.377105
 C         1.532859        -0.009214        -0.068244
 C         2.193888        -1.046612        -1.082464
 C         3.189798        -1.360222        -0.060345
 O         3.747653        -2.578217         0.250927
 C         3.836100         0.038663         0.384651
 O         3.510885         1.228015        -0.298587
 C         2.037431         1.404304        -0.352053
 C         2.516106        -0.464318         0.929376
 H         0.028595         0.753670         1.184106
 H        -0.582517         0.038102        -0.373597
 H        -0.140616        -1.033299         0.838405
 H         1.486266        -1.990320        -1.204199
 H         2.495972        -0.732896        -2.031568
 H         4.489658        -2.759883        -0.367606
 H         4.849538        -0.114433         0.782758
 H         1.760742         1.932141         0.547485
 H         1.862546         2.098246        -1.177543
 H         2.203234        -0.726342         1.988962
