19
Iteration:  4426charge 0 multiplicity 1
 C         0.010041        -0.113263         0.553514
 C         1.458768        -0.015240         0.019080
 C         2.085989        -1.052372        -1.000489
 C         3.175461        -1.237944        -0.016608
 O         3.804223        -2.503637         0.039992
 C         3.807300         0.003278         0.389939
 O         3.585626         1.112011        -0.533073
 C         2.156950         1.364996        -0.469515
 C         2.522849        -0.483081         1.127283
 H        -0.180902         0.667412         1.431364
 H        -0.642935         0.142471        -0.241149
 H        -0.338552        -1.098257         0.768444
 H         1.561211        -1.975949        -1.011160
 H         2.403230        -0.751416        -2.021346
 H         4.364610        -2.581365         0.815132
 H         4.787278         0.047841         0.946078
 H         1.960407         2.201986         0.204687
 H         1.926971         1.787027        -1.548599
 H         2.445104        -0.578445         2.251813
