19
Iteration:  1112charge 0 multiplicity 1
 C        -0.032318         0.002604         0.229932
 C         1.497830        -0.067407         0.050382
 C         2.172523        -1.000171        -0.996196
 C         3.251871        -1.289364         0.053283
 O         3.723010        -2.596594         0.080241
 C         3.891767         0.038314         0.488609
 O         3.547431         1.168085        -0.438507
 C         2.080348         1.301647        -0.352836
 C         2.566270        -0.516983         1.141069
 H        -0.292573         0.674442         0.987066
 H        -0.573633         0.542196        -0.617729
 H        -0.543769        -0.975889         0.507849
 H         1.654891        -1.921161        -1.239952
 H         2.297411        -0.326083        -1.841799
 H         4.285423        -2.723423        -0.691600
 H         4.854161         0.133750         0.988897
 H         1.903556         2.054786         0.387747
 H         1.783672         1.599190        -1.351312
 H         2.299197        -0.638052         2.194591
