19
Iteration:   535
 C         0.061195        -0.048324         0.302518
 C         1.505014        -0.009136         0.020998
 C         2.105739        -0.925272        -1.027926
 C         3.214991        -1.306460        -0.013714
 O         3.774991        -2.556262         0.090270
 C         3.821025         0.033986         0.543560
 O         3.537938         1.030125        -0.520806
 C         2.159135         1.373284        -0.319502
 C         2.444564        -0.512268         1.096219
 H        -0.098876         0.660974         1.239832
 H        -0.435058         0.401156        -0.643036
 H        -0.254045        -1.056427         0.389283
 H         1.478911        -1.826461        -1.150970
 H         2.344986        -0.600460        -2.083516
 H         4.596902        -2.444498         0.518106
 H         4.818777         0.123683         1.081924
 H         2.047128         2.179854         0.469986
 H         1.675419         1.692224        -1.334067
 H         2.209510        -0.795136         2.127465
