19
Iteration:  3041
 C         0.080821        -0.178393         0.348538
 C         1.496104         0.077859         0.031338
 C         2.073786        -0.996251        -1.000014
 C         3.134298        -1.375872         0.024571
 O         3.958392        -2.498630         0.210757
 C         3.748010         0.009180         0.242624
 O         3.553598         1.091419        -0.572003
 C         2.121047         1.446189        -0.258903
 C         2.518910        -0.474193         1.083546
 H        -0.363830         0.513966         1.166537
 H        -0.535119         0.050540        -0.516206
 H        -0.146579        -1.249317         0.450140
 H         1.310659        -1.783522        -1.243617
 H         2.394938        -0.564671        -1.935685
 H         3.348633        -3.221865         0.495930
 H         4.760459         0.218029         0.697067
 H         2.151940         2.006937         0.687140
 H         1.689859         2.131682        -0.951731
 H         2.265551        -0.495310         2.220044
