19
Iteration:  4174
 C         0.092542        -0.091369         0.336499
 C         1.549091         0.045442         0.059964
 C         1.969651        -1.190180        -0.895032
 C         3.163922        -1.324145        -0.023110
 O         3.826293        -2.574891         0.102429
 C         3.750534         0.047033         0.346006
 O         3.543622         1.190533        -0.494945
 C         2.126478         1.411918        -0.319746
 C         2.605987        -0.472884         1.041676
 H        -0.269038         0.790851         1.088776
 H        -0.632474         0.120917        -0.513571
 H        -0.134022        -1.063717         0.700968
 H         1.200040        -1.850495        -0.842298
 H         2.098012        -0.927908        -2.062281
 H         4.815725        -2.345545         0.137164
 H         4.761397         0.009907         0.887482
 H         1.903185         2.204514         0.416339
 H         1.829487         1.750313        -1.236243
 H         2.543809        -0.459613         2.101211
