19
Iteration:  1094
 C         0.009465        -0.062493         0.272314
 C         1.525521         0.028403         0.023614
 C         2.197092        -0.923831        -1.078220
 C         3.191002        -1.334793         0.010591
 O         3.789401        -2.592409         0.202878
 C         3.747361        -0.007908         0.398095
 O         3.519813         1.106132        -0.427415
 C         2.117108         1.396284        -0.274514
 C         2.548186        -0.500031         1.082657
 H        -0.270816         0.661371         1.104619
 H        -0.461067         0.135711        -0.606072
 H        -0.249014        -1.123081         0.464240
 H         1.450038        -1.752054        -1.429871
 H         2.797860        -0.484111        -1.841352
 H         3.914046        -2.989843        -0.660268
 H         4.677407         0.050034         0.940068
 H         2.003104         2.137923         0.573684
 H         1.739139         1.830291        -1.304291
 H         2.555078        -0.642749         2.101672
