19
Iteration:  2328charge 0 multiplicity 1
 C        -0.023786         0.141347         0.267936
 C         1.512522        -0.020165        -0.006999
 C         2.043098        -1.220280        -0.846737
 C         3.301790        -1.310583        -0.075096
 O         3.905462        -2.546631        -0.087222
 C         3.753422         0.012100         0.514904
 O         3.500461         1.244422        -0.157698
 C         2.115812         1.275385        -0.559125
 C         2.546326        -0.517400         1.119765
 H        -0.193846         0.945676         1.063772
 H        -0.602299         0.420170        -0.615911
 H        -0.467943        -0.828382         0.551450
 H         1.421774        -2.143612        -0.698591
 H         2.117396        -1.077390        -1.935648
 H         4.811650        -2.356622         0.341106
 H         4.731030        -0.065822         0.952470
 H         1.607426         2.244269        -0.361815
 H         1.843526         1.223074        -1.640795
 H         2.383338        -0.656646         2.246931
