19
Iteration:  2739
 C         0.148554        -0.498228        -0.544450
 C         1.322873         0.293734        -0.152464
 C         1.866018         0.510146         1.299949
 C         3.249657         0.828263         0.613936
 O         4.344728         0.343677         1.370491
 C         3.541841         2.311063         0.306530
 O         2.687810         2.542083        -0.822804
 C         2.061790         1.234277        -1.154756
 C         2.766761         0.113122        -0.643004
 H        -0.067586        -1.342177         0.160676
 H        -0.660041         0.102693        -0.546719
 H         0.204815        -0.863952        -1.573998
 H         1.434360         1.386239         1.839435
 H         1.894106        -0.467295         1.826131
 H         4.092884        -0.396502         1.987588
 H         3.107482         2.872327         1.109646
 H         4.644323         2.436102         0.162742
 H         1.548431         1.297926        -2.084680
 H         3.178135        -0.614475        -1.424582
