19
Iteration:   552
 C        -0.047741        -0.302484        -0.289048
 C         1.288510         0.326159        -0.191827
 C         1.848802         0.822463         1.203410
 C         3.340511         0.841812         0.680052
 O         4.408197         0.330322         1.479747
 C         3.771660         2.150808        -0.002109
 O         2.625071         2.386784        -0.842609
 C         2.029643         1.172256        -1.240621
 C         2.734470        -0.050394        -0.539596
 H        -0.242933        -1.032514         0.498908
 H        -0.959251         0.396107        -0.435488
 H        -0.177904        -0.990742        -1.129621
 H         1.483786         1.717253         1.684814
 H         1.827478        -0.075644         1.842614
 H         3.938671        -0.396326         1.901462
 H         3.776111         2.959211         0.740482
 H         4.716630         2.344990        -0.555784
 H         1.796951         1.115025        -2.288686
 H         3.106150        -0.954184        -0.965455
