19
Iteration:   747charge 0 multiplicity 1
 C         0.073139        -0.453498        -0.364987
 C         1.293221         0.431514        -0.115481
 C         1.808578         0.922169         1.258800
 C         3.356151         0.852901         0.698057
 O         4.373339         0.071162         1.439452
 C         3.586711         2.325647         0.178964
 O         2.721840         2.433549        -1.018041
 C         2.016695         1.150637        -1.184211
 C         2.715790         0.043932        -0.539777
 H         0.148639        -1.127983         0.490431
 H        -1.032061        -0.143171        -0.308911
 H         0.079493        -1.077872        -1.280887
 H         1.189321         1.838188         1.554867
 H         1.611090         0.190687         2.091278
 H         4.791216        -0.524142         0.801582
 H         3.259458         2.950372         1.043447
 H         4.664684         2.429323        -0.045901
 H         1.870557         1.064664        -2.213013
 H         3.077720        -0.871378        -1.122483
