19
Iteration:   218charge 0 multiplicity 1
 C        -0.187104        -0.261576        -0.321560
 C         1.292116         0.423722        -0.065701
 C         1.905020         0.922418         1.213873
 C         3.398141         0.780168         0.691508
 O         4.551464         0.215044         1.455428
 C         3.665353         2.090622        -0.084267
 O         2.632648         2.363641        -0.969942
 C         1.977435         1.139038        -1.197779
 C         2.724962         0.005172        -0.430459
 H        -0.474476        -1.012413         0.515886
 H        -1.006267         0.522425        -0.346497
 H        -0.174316        -0.865474        -1.274173
 H         1.590368         1.944757         1.456616
 H         1.861419         0.120824         1.947005
 H         4.113750         0.084746         2.347640
 H         3.815782         2.936554         0.599932
 H         4.648728         1.904680        -0.656640
 H         1.709411         0.959905        -2.311490
 H         3.050133        -0.971283        -0.786501
