19
Iteration:  1139
 C         0.121775        -0.484475        -0.487054
 C         1.332340         0.333063        -0.218988
 C         1.855022         0.704644         1.172036
 C         3.304276         0.796963         0.606983
 O         4.313241         0.283415         1.483794
 C         3.647995         2.272030         0.244700
 O         2.581033         2.518793        -0.733214
 C         2.011701         1.245887        -1.195969
 C         2.778095         0.001337        -0.584621
 H        -0.032570        -1.174526         0.328506
 H        -0.766452         0.047131        -0.405876
 H         0.284602        -0.918720        -1.505275
 H         1.338613         1.581906         1.616152
 H         2.040878        -0.134737         1.846866
 H         4.610050        -0.591584         1.086055
 H         3.427700         3.026601         0.985014
 H         4.616796         2.476569        -0.181439
 H         1.673105         1.416584        -2.191037
 H         3.262244        -0.910477        -1.095313
