19
Iteration:  1641charge 0 multiplicity 1
 C         0.164398        -0.566221        -0.605205
 C         1.385919         0.305895        -0.197666
 C         1.830251         0.609794         1.254187
 C         3.276352         0.876276         0.748047
 O         4.330744         0.145992         1.498998
 C         3.531580         2.239035         0.253092
 O         2.564238         2.601504        -0.775037
 C         2.001428         1.279241        -1.203901
 C         2.869666         0.234757        -0.625476
 H         0.049728        -1.509141        -0.080754
 H        -0.746106        -0.010788        -0.453515
 H         0.263772        -0.737875        -1.729876
 H         1.282030         1.278002         1.865778
 H         1.625467        -0.240405         1.895203
 H         4.833608        -0.274055         0.822917
 H         3.476029         2.935680         1.065847
 H         4.533097         2.404095        -0.197278
 H         1.569274         1.164424        -2.181293
 H         3.456874        -0.625485        -1.125523
