19
Iteration:  4221charge 0 multiplicity 1
 C         0.159438        -0.670378        -0.569000
 C         1.393828         0.270390        -0.195968
 C         1.827995         0.586179         1.140604
 C         3.341242         0.907889         0.671996
 O         4.328047         0.027923         1.520753
 C         3.405228         2.439393         0.399540
 O         2.637188         2.583187        -0.753920
 C         2.075937         1.408295        -1.212837
 C         2.855851         0.209626        -0.724757
 H         0.363558        -1.616219         0.063179
 H        -0.793079        -0.344561        -0.274859
 H         0.120092        -0.893695        -1.672240
 H         1.318737         1.460256         1.722860
 H         1.740374        -0.295763         1.732497
 H         4.108710        -0.833852         1.029260
 H         2.900259         3.053697         1.183732
 H         4.471915         2.736264         0.345225
 H         1.532684         1.622017        -2.140880
 H         3.466267        -0.395710        -1.435306
