19
Iteration:  2914
 C         0.208912        -0.476063        -0.649144
 C         1.397422         0.327817        -0.128636
 C         1.851532         0.686299         1.281946
 C         3.229323         0.847634         0.669940
 O         4.386334         0.236504         1.295997
 C         3.459186         2.280543         0.470290
 O         2.585907         2.502082        -0.866589
 C         2.124857         1.224818        -1.183134
 C         2.745147         0.083866        -0.546076
 H         0.178829        -1.371243         0.125963
 H        -0.771025        -0.009506        -0.607438
 H         0.404687        -0.800157        -1.725277
 H         1.510056         1.574569         1.862650
 H         1.813883        -0.157310         1.964909
 H         4.222549        -0.711910         0.990196
 H         3.139203         2.880175         1.315902
 H         4.460485         2.651492         0.142251
 H         1.420017         1.256442        -2.019055
 H         3.253665        -0.740665        -0.973827
