19
Iteration:  3968
 C         0.100695        -0.508931        -0.576615
 C         1.369776         0.286489        -0.387613
 C         1.827607         0.626635         1.095897
 C         3.403154         0.815643         0.662953
 O         4.360404         0.281860         1.589437
 C         3.492071         2.304703         0.291552
 O         2.468051         2.519193        -0.542949
 C         2.137622         1.258849        -1.288887
 C         2.916576         0.091861        -0.688656
 H         0.161126        -1.464960         0.049713
 H        -0.771634         0.006647        -0.180577
 H        -0.084380        -0.915987        -1.594035
 H         1.290185         1.477647         1.610478
 H         1.671510        -0.285074         1.634954
 H         3.820501        -0.440533         1.985840
 H         3.487086         2.942530         1.240616
 H         4.479678         2.537770        -0.243776
 H         1.817085         1.601171        -2.302223
 H         3.289487        -0.691235        -1.308890
