19
Iteration:  4695
 C         0.207557        -0.366321        -0.768064
 C         1.422744         0.294882        -0.268547
 C         1.830181         0.543327         1.246279
 C         3.270775         0.763236         0.764686
 O         4.450887         0.394713         1.537432
 C         3.506106         2.163485         0.352433
 O         2.428584         2.475434        -0.602728
 C         2.073097         1.315818        -1.242249
 C         2.789936         0.072560        -0.778510
 H        -0.105775        -1.317507        -0.159443
 H        -0.698824         0.220346        -0.581813
 H         0.276669        -0.697541        -1.769382
 H         1.435943         1.444248         1.776304
 H         1.849884        -0.388595         1.882570
 H         4.239141        -0.537834         1.771686
 H         3.533576         2.988642         1.126735
 H         4.518227         2.224338        -0.176767
 H         1.634546         1.360029        -2.196783
 H         3.420396        -0.573187        -1.358807
