19
Iteration:  4888charge 0 multiplicity 1
 C         0.164108        -0.404788        -0.626488
 C         1.449984         0.244242        -0.302386
 C         1.753443         0.519944         1.168346
 C         3.242580         0.793939         0.667165
 O         4.317615         0.406001         1.428585
 C         3.494238         2.193459         0.399081
 O         2.533040         2.483671        -0.605368
 C         2.122819         1.263776        -1.177569
 C         2.890545         0.164694        -0.672473
 H         0.087891        -1.400956        -0.134092
 H        -0.659049         0.328944        -0.313550
 H        -0.004314        -0.621665        -1.731439
 H         1.300339         1.402815         1.703433
 H         1.784047        -0.482583         1.621209
 H         4.342480        -0.538523         1.575300
 H         3.495130         3.109765         1.050991
 H         4.501489         2.206124        -0.089158
 H         2.050479         1.211121        -2.254299
 H         3.456287        -0.662367        -1.127652
