19
Iteration:  3129charge 0 multiplicity 1
 C         0.079116        -0.386240        -0.710471
 C         1.391447         0.148069        -0.193303
 C         1.874085         0.653531         1.231227
 C         3.362684         0.829723         0.698112
 O         4.374051         0.287465         1.534376
 C         3.530258         2.251982         0.162163
 O         2.398791         2.491072        -0.592763
 C         2.016354         1.245628        -1.137556
 C         2.925426         0.111502        -0.632561
 H        -0.065581        -1.352164        -0.388071
 H        -0.744001         0.347340        -0.591659
 H         0.008173        -0.530688        -1.839572
 H         1.340384         1.490313         1.661032
 H         2.007644        -0.102251         2.066875
 H         4.971499        -0.229798         0.979819
 H         3.809938         3.017220         0.942822
 H         4.441426         2.178293        -0.406373
 H         1.699872         1.056837        -2.178153
 H         3.385895        -0.498856        -1.371714
