19
Iteration:  3476
 C         0.245028        -0.523089        -0.481211
 C         1.502313         0.223755        -0.234433
 C         1.724647         0.546633         1.208317
 C         3.228684         0.862907         0.649223
 O         4.262041         0.060491         1.286281
 C         3.396434         2.351159         0.422598
 O         2.501730         2.571532        -0.716378
 C         2.147584         1.309572        -1.193786
 C         2.999236         0.266282        -0.742612
 H         0.152540        -1.397942         0.326333
 H        -0.574017         0.178075        -0.501118
 H         0.316104        -0.893053        -1.505961
 H         0.979797         1.209398         1.714861
 H         1.825414        -0.386506         1.862643
 H         4.742771         0.381608         2.050370
 H         3.098487         2.987414         1.329494
 H         4.467543         2.646129         0.353869
 H         1.699347         1.378948        -2.154086
 H         3.522000        -0.583073        -1.209276
