19
Iteration:  2615charge 0 multiplicity 1
 C         0.239942        -0.618877        -0.519130
 C         1.294776         0.424851        -0.110561
 C         1.783921         0.680359         1.319158
 C         3.261240         0.835441         0.678507
 O         4.334070         0.241359         1.213245
 C         3.447496         2.224258         0.364220
 O         2.684530         2.510330        -0.801650
 C         2.165613         1.306864        -1.185508
 C         2.734671         0.143420        -0.646981
 H         0.344686        -1.522911         0.056339
 H        -0.789925        -0.398763        -0.570753
 H         0.514588        -0.904627        -1.547253
 H         1.568627         1.620059         1.929044
 H         1.746362        -0.285309         1.859148
 H         4.205631        -0.533011         1.826666
 H         3.142527         2.938617         1.136718
 H         4.447264         2.585615         0.142022
 H         1.609559         1.313821        -2.155439
 H         3.164339        -0.704591        -1.133001
