19
Iteration:  1487charge 0 multiplicity 1
 C         0.231838        -0.490394        -0.573340
 C         1.302102         0.292608        -0.132188
 C         1.730329         0.657976         1.266237
 C         3.271253         0.817089         0.720934
 O         4.258745         0.188823         1.331396
 C         3.535849         2.343830         0.392270
 O         2.621273         2.514778        -0.846738
 C         2.122500         1.234212        -1.174409
 C         2.845170         0.146024        -0.600678
 H         0.169547        -1.369469         0.041141
 H        -0.767010        -0.148378        -0.507414
 H         0.542604        -0.884671        -1.584355
 H         1.350815         1.550980         1.887614
 H         1.895974        -0.285807         1.933362
 H         4.854884        -0.214322         0.651054
 H         3.161801         3.076407         1.147295
 H         4.617541         2.612622         0.137165
 H         1.706445         1.130225        -2.220087
 H         3.293587        -0.655313        -1.091586
