19
Iteration:  1449charge 0 multiplicity 1
 C         0.156383        -0.607075        -0.512690
 C         1.334582         0.457759        -0.192626
 C         1.893117         0.520947         1.245833
 C         3.272141         0.774948         0.654058
 O         4.294097         0.256085         1.607103
 C         3.535452         2.246568         0.375657
 O         2.700262         2.525461        -0.887600
 C         2.014158         1.343873        -1.252442
 C         2.712989         0.210663        -0.743738
 H         0.533902        -1.519490        -0.000641
 H        -0.887791        -0.225875        -0.355148
 H         0.081044        -0.800975        -1.565308
 H         1.532536         1.261251         1.940088
 H         1.855210        -0.406806         1.740367
 H         5.048040        -0.228767         1.154052
 H         3.037696         2.938764         1.086617
 H         4.580748         2.500884         0.189206
 H         1.572167         1.331899        -2.216891
 H         3.090217        -0.636397        -1.435882
