19
Iteration:  1871charge 0 multiplicity 1
 C         0.166627        -0.584747        -0.610058
 C         1.304389         0.326283        -0.157596
 C         1.823330         0.596843         1.291050
 C         3.326955         0.831085         0.759022
 O         4.432865         0.248073         1.411876
 C         3.591337         2.254078         0.189396
 O         2.598274         2.565684        -0.759360
 C         1.944854         1.295686        -1.148833
 C         2.770780         0.150172        -0.671814
 H         0.200517        -1.462322         0.023108
 H        -0.816487        -0.167075        -0.773543
 H         0.359144        -0.850665        -1.684652
 H         1.344472         1.476847         1.740455
 H         1.488944        -0.304321         1.899859
 H         4.229128        -0.319813         2.122588
 H         3.634448         3.041841         0.885781
 H         4.587102         2.359379        -0.219760
 H         1.413273         1.428483        -2.096790
 H         3.306800        -0.566346        -1.216158
