19
Iteration:   486
 C        -0.048893        -0.409320        -0.284147
 C         1.233031         0.446641        -0.065413
 C         1.922695         0.870674         1.260544
 C         3.287833         0.816589         0.598919
 O         4.274726         0.186979         1.430434
 C         3.725235         2.191835         0.014947
 O         2.744289         2.412153        -0.986180
 C         2.052149         1.129741        -1.193395
 C         2.700005        -0.018804        -0.490229
 H         0.333081        -1.353056         0.153166
 H        -1.043444         0.023056         0.165490
 H        -0.328183        -0.453784        -1.365854
 H         1.537440         1.701028         1.865602
 H         1.862804         0.029052         1.964862
 H         4.829807         0.956525         1.753204
 H         3.762093         2.927855         0.838465
 H         4.679487         2.268442        -0.416824
 H         1.824114         0.943257        -2.317348
 H         3.152471        -0.881773        -0.918817
