19
Iteration:  3666charge 0 multiplicity 1
 C         0.275531        -0.385406        -0.773233
 C         1.402576         0.264100        -0.170759
 C         1.890750         0.591099         1.253803
 C         3.373356         0.755486         0.663122
 O         4.345663         0.317414         1.439872
 C         3.497111         2.247976         0.334292
 O         2.467392         2.525082        -0.668178
 C         1.965595         1.225020        -1.167420
 C         2.816848         0.136228        -0.657774
 H         0.166958        -1.418668        -0.345167
 H        -0.697982         0.100134        -0.648353
 H         0.513585        -0.721897        -1.844867
 H         1.299880         1.418605         1.730200
 H         1.799587        -0.315984         1.927200
 H         4.035596        -0.359273         2.108169
 H         3.313475         3.007999         1.084327
 H         4.503702         2.418435        -0.063179
 H         1.503537         1.292284        -2.121695
 H         3.273417        -0.825997        -1.022089
