19
Iteration:  4804
 C         0.148840        -0.674298        -0.754531
 C         1.326338         0.320679        -0.255107
 C         1.690029         0.612537         1.215774
 C         3.251672         0.822253         0.801008
 O         4.432142         0.256880         1.332253
 C         3.581870         2.241096         0.394982
 O         2.670195         2.583553        -0.704090
 C         2.035348         1.372701        -1.193168
 C         2.807435         0.195478        -0.558642
 H         0.297597        -1.576659        -0.013325
 H        -0.779860        -0.260955        -0.482069
 H         0.172106        -1.042247        -1.745730
 H         1.209212         1.338199         1.894622
 H         1.567187        -0.264916         1.824859
 H         4.229643        -0.484513         1.980069
 H         3.291566         2.991092         1.141967
 H         4.600429         2.261691        -0.022395
 H         1.567799         1.209562        -2.176998
 H         3.495097        -0.209497        -1.323426
