19
Iteration:  1330
 C         0.126854        -0.645509        -0.435113
 C         1.311533         0.319677        -0.230072
 C         1.810155         0.568601         1.230064
 C         3.244321         0.806064         0.722564
 O         4.368428         0.258965         1.485272
 C         3.532621         2.294995         0.268322
 O         2.733878         2.623341        -0.858252
 C         2.087720         1.371616        -1.194299
 C         2.712583         0.144040        -0.673369
 H         0.108807        -1.399334         0.358958
 H        -0.855148        -0.113809        -0.618305
 H         0.326876        -1.091019        -1.369634
 H         1.097322         1.231717         1.874021
 H         1.595169        -0.488388         1.692060
 H         4.671947        -0.412320         0.900252
 H         3.276480         2.941316         1.146412
 H         4.644018         2.305325         0.135938
 H         1.902969         1.479066        -2.255318
 H         3.070470        -0.786509        -1.218875
