19
Iteration:  2346charge 0 multiplicity 1
 C         0.149333        -0.496296        -0.440729
 C         1.371508         0.359509        -0.279033
 C         1.794861         0.500667         1.193014
 C         3.263487         0.744558         0.682511
 O         4.492102         0.304675         1.418495
 C         3.462861         2.308778         0.383972
 O         2.607654         2.552655        -0.811047
 C         2.083327         1.311646        -1.216327
 C         2.775390         0.134006        -0.678732
 H         0.169379        -1.437430         0.237108
 H        -0.760581         0.071013        -0.064739
 H        -0.223830        -0.867844        -1.417821
 H         1.340793         1.254201         1.861206
 H         1.601653        -0.553299         1.562675
 H         4.463590        -0.630710         1.540038
 H         3.032987         2.960221         1.135446
 H         4.443099         2.684473         0.045048
 H         1.696071         1.314746        -2.206544
 H         3.222753        -0.773179        -1.218804
