19
Iteration:  2814
 C         0.072472        -0.487313        -0.523538
 C         1.455148         0.188367        -0.227381
 C         1.753237         0.730741         1.152502
 C         3.374815         0.842209         0.691146
 O         4.355654         0.218967         1.448579
 C         3.645572         2.279858         0.291542
 O         2.398961         2.532903        -0.659272
 C         2.105478         1.192161        -1.201106
 C         2.933694         0.144038        -0.701654
 H        -0.086835        -1.499442         0.065192
 H        -0.626320         0.166779         0.106982
 H        -0.338151        -0.433859        -1.605740
 H         1.159133         1.711831         1.308697
 H         1.630680         0.030597         1.981867
 H         4.080587        -0.684824         1.596334
 H         3.470384         3.004487         1.057950
 H         4.617087         2.354732        -0.386526
 H         1.759120         1.269837        -2.215822
 H         3.559869        -0.547996        -1.377778
