19
Iteration:  2840
 C         0.120222        -0.441318        -0.488001
 C         1.445759         0.292009        -0.282063
 C         1.941570         0.642184         1.075680
 C         3.390172         0.771394         0.619782
 O         4.274199         0.258487         1.571330
 C         3.593234         2.214278         0.177999
 O         2.364890         2.541877        -0.593642
 C         2.043260         1.219149        -1.200344
 C         2.925307         0.101393        -0.726359
 H         0.077524        -1.401583         0.035266
 H        -0.562682         0.112524         0.081811
 H        -0.232839        -0.391829        -1.476234
 H         1.469430         1.552209         1.474289
 H         1.839302        -0.165026         1.876963
 H         3.818510        -0.378119         2.105943
 H         3.523770         2.950509         1.062054
 H         4.492465         2.362911        -0.462204
 H         1.611317         1.473768        -2.191539
 H         3.603254        -0.428938        -1.333184
