19
Iteration:  3492
 C         0.294341        -0.545739        -0.593984
 C         1.471647         0.275928        -0.225299
 C         1.837662         0.543213         1.221842
 C         3.238616         0.803484         0.710683
 O         4.257349         0.146201         1.243484
 C         3.383767         2.335066         0.457400
 O         2.569850         2.589788        -0.685817
 C         2.062519         1.312306        -1.192232
 C         2.873299         0.138807        -0.662679
 H         0.131184        -1.274689         0.150030
 H        -0.712618        -0.014679        -0.576707
 H         0.170703        -1.012180        -1.607882
 H         1.461915         1.464126         1.726685
 H         1.744908        -0.399760         1.837707
 H         4.587907         0.623849         2.070190
 H         3.021316         3.067525         1.176465
 H         4.504673         2.614169         0.119140
 H         1.741727         1.371397        -2.256693
 H         3.549478        -0.493821        -1.221846
