19
Iteration:  4901
 C         0.210778        -0.469476        -0.669418
 C         1.332073         0.391691        -0.243540
 C         1.808837         0.533784         1.180781
 C         3.241547         0.731171         0.744699
 O         4.400067         0.358070         1.458071
 C         3.470247         2.218635         0.370184
 O         2.565586         2.529199        -0.713698
 C         2.123362         1.313264        -1.225667
 C         2.842485         0.105119        -0.647876
 H         0.223334        -1.518353        -0.130070
 H        -0.782068        -0.079439        -0.403456
 H         0.308834        -0.610183        -1.752389
 H         1.217525         1.337703         1.749453
 H         1.663606        -0.340658         1.818529
 H         4.362830        -0.621417         1.641513
 H         3.179931         2.672233         1.346842
 H         4.533285         2.436814         0.142277
 H         1.628739         1.425324        -2.205451
 H         3.246586        -0.694160        -1.292328
