19
Iteration:  2093charge 0 multiplicity 1
 C         0.137488        -0.556353        -0.566488
 C         1.350327         0.252800        -0.217580
 C         1.883263         0.644770         1.211353
 C         3.314242         0.852135         0.653851
 O         4.338368         0.356074         1.458521
 C         3.645126         2.159434         0.200824
 O         2.456877         2.533602        -0.577853
 C         2.059595         1.305556        -1.162787
 C         2.793020         0.133546        -0.732238
 H         0.091712        -1.634668        -0.201362
 H        -0.733943        -0.046844        -0.148596
 H         0.029148        -0.598100        -1.704397
 H         1.498634         1.552226         1.726416
 H         1.925309        -0.176324         1.998999
 H         4.554437        -0.592431         1.402728
 H         3.600651         2.845346         1.070556
 H         4.646298         2.162856        -0.446676
 H         1.598474         1.440413        -2.120083
 H         3.244950        -0.597935        -1.369648
