19
Iteration:   556charge 0 multiplicity 1
 C        -0.042494        -0.318036        -0.270471
 C         1.276236         0.339865        -0.209496
 C         1.882493         0.817741         1.193124
 C         3.313159         0.821636         0.697630
 O         4.417660         0.332510         1.464213
 C         3.784349         2.128498         0.032398
 O         2.632648         2.407091        -0.895034
 C         2.003912         1.181351        -1.247324
 C         2.717273        -0.036726        -0.528346
 H        -0.258889        -0.999142         0.619356
 H        -0.876744         0.329667        -0.497523
 H        -0.039196        -0.971240        -1.182458
 H         1.493368         1.657203         1.831670
 H         1.729509        -0.105071         1.808860
 H         4.029085        -0.285011         2.158621
 H         3.658613         2.932431         0.792351
 H         4.740553         2.256772        -0.394371
 H         1.781566         1.197873        -2.301908
 H         3.105871        -0.974079        -1.025683
