19
Iteration:  1558
 C         0.038934        -0.470589        -0.542809
 C         1.354183         0.247885        -0.263896
 C         1.925863         0.437216         1.214306
 C         3.334583         0.824856         0.623058
 O         4.184133         0.327804         1.651674
 C         3.680227         2.205818         0.190657
 O         2.514156         2.599999        -0.697203
 C         2.029586         1.331529        -1.165239
 C         2.885560         0.113175        -0.741040
 H        -0.012597        -1.510601        -0.070514
 H        -0.874469         0.187392        -0.202663
 H        -0.085239        -0.642695        -1.618481
 H         1.401412         1.190209         1.846862
 H         2.074539        -0.575258         1.541458
 H         5.050092         0.770013         1.425588
 H         3.877650         2.996486         0.960541
 H         4.526477         2.040348        -0.483062
 H         1.756617         1.257725        -2.241118
 H         3.495243        -0.748852        -1.265426
