19
Iteration:  4571charge 0 multiplicity 1
 C         0.260200        -0.506840        -0.756339
 C         1.375549         0.213838        -0.232892
 C         1.763804         0.522903         1.197903
 C         3.319303         0.731988         0.701670
 O         4.310526         0.269757         1.541526
 C         3.611359         2.274099         0.091863
 O         2.419917         2.598346        -0.606819
 C         2.071494         1.309598        -1.013443
 C         2.899310         0.230474        -0.613915
 H        -0.012637        -1.587118        -0.562304
 H        -0.545095        -0.006492        -0.269863
 H         0.201901        -0.288234        -1.882616
 H         1.232130         1.449415         1.637858
 H         1.657881        -0.332654         1.828373
 H         4.045264        -0.562004         1.948151
 H         3.850601         3.122627         0.766126
 H         4.373425         1.934336        -0.664614
 H         1.691444         1.557798        -2.037764
 H         3.583797        -0.402070        -1.269145
