19
Iteration:  2501charge 0 multiplicity 1
 C         0.188219        -0.462008        -0.665391
 C         1.320628         0.249577        -0.137165
 C         1.840806         0.585036         1.294792
 C         3.310226         0.786551         0.661628
 O         4.419064         0.335420         1.305668
 C         3.504802         2.330639         0.309098
 O         2.568925         2.518838        -0.707574
 C         1.996403         1.224837        -1.160406
 C         2.791496         0.098873        -0.602731
 H         0.310309        -1.414398        -0.324086
 H        -0.741841        -0.041689        -0.226302
 H         0.105680        -0.367956        -1.694624
 H         1.434272         1.432894         1.826963
 H         2.017232        -0.295309         1.925241
 H         4.013518        -0.540962         1.576625
 H         3.378572         2.955416         1.200524
 H         4.579720         2.531355        -0.000085
 H         1.827827         1.163028        -2.264081
 H         3.217333        -0.763221        -1.055273
