19
Iteration:   982charge 0 multiplicity 1
 C         0.049575        -0.338539        -0.518842
 C         1.380944         0.301893        -0.141747
 C         1.836749         0.713855         1.257143
 C         3.311857         0.749653         0.665209
 O         4.428373         0.256612         1.450347
 C         3.570408         2.186971         0.147967
 O         2.528749         2.491493        -0.846270
 C         2.052250         1.192980        -1.153770
 C         2.828956         0.009038        -0.621493
 H        -0.126502        -1.081921         0.284711
 H        -0.754956         0.394362        -0.337225
 H         0.053191        -0.583612        -1.571325
 H         1.480517         1.610854         1.807068
 H         1.628208        -0.066954         2.046838
 H         4.347874         0.809046         2.223128
 H         3.706446         2.815605         1.014362
 H         4.468775         2.095078        -0.430150
 H         1.635545         1.200001        -2.172204
 H         3.262130        -0.876244        -1.216456
