19
Iteration:  1725
 C         0.184358        -0.455824        -0.579835
 C         1.425755         0.258982        -0.191788
 C         1.816030         0.662139         1.255110
 C         3.210061         0.898853         0.702399
 O         4.318935         0.124913         1.270797
 C         3.504304         2.310959         0.337025
 O         2.529722         2.504939        -0.769277
 C         2.124404         1.228525        -1.166782
 C         2.849365         0.090595        -0.566205
 H         0.114345        -1.452766        -0.136212
 H        -0.736430         0.189655        -0.341536
 H         0.045832        -0.592461        -1.689521
 H         1.333107         1.556605         1.792261
 H         1.972889        -0.330416         1.756671
 H         4.606235         0.681844         2.075114
 H         3.392163         3.123670         1.162571
 H         4.509348         2.468398        -0.173053
 H         1.718046         1.178133        -2.160293
 H         3.471933        -0.754943        -0.861737
