19
Iteration:  3997charge 0 multiplicity 1
 C         0.164973        -0.443727        -0.620271
 C         1.479748         0.144809        -0.274022
 C         1.825824         0.625632         1.107371
 C         3.322850         0.775948         0.655888
 O         4.316089         0.338258         1.480275
 C         3.483451         2.193494         0.299850
 O         2.423054         2.492363        -0.545593
 C         2.100735         1.278790        -1.178600
 C         2.952679         0.189547        -0.678708
 H        -0.215030        -1.350091        -0.246011
 H        -0.596876         0.390499        -0.322633
 H         0.233593        -0.630756        -1.664730
 H         1.364877         1.574380         1.318625
 H         1.631356        -0.070427         1.972413
 H         3.859185        -0.156797         2.130630
 H         3.685789         2.945419         1.046748
 H         4.335922         1.929658        -0.412772
 H         1.870684         1.494291        -2.195629
 H         3.422665        -0.507782        -1.377289
