19
Iteration:  1885charge 0 multiplicity 1
 C         0.157491        -0.654398        -0.584492
 C         1.303995         0.375733        -0.175476
 C         1.781186         0.558862         1.298231
 C         3.187864         0.773958         0.696361
 O         4.417533         0.285720         1.362660
 C         3.587174         2.213352         0.276802
 O         2.667492         2.576307        -0.870797
 C         1.995837         1.400029        -1.111196
 C         2.780553         0.244049        -0.620703
 H         0.307464        -1.579179         0.153364
 H        -0.845486        -0.179599        -0.312121
 H         0.424684        -1.200384        -1.554256
 H         1.425675         1.289442         1.997330
 H         2.014194        -0.418028         1.800183
 H         4.054464        -0.340299         2.055102
 H         3.559955         3.022400         1.076683
 H         4.632755         2.024654        -0.152776
 H         1.690383         1.325204        -2.172439
 H         3.226697        -0.577102        -1.189650
