19
Iteration:   811
 C        -0.097907        -0.247896        -0.491971
 C         1.305336         0.303604        -0.207261
 C         1.934065         0.751351         1.194989
 C         3.403787         0.807180         0.689497
 O         4.405901         0.254146         1.626035
 C         3.652648         2.129562        -0.002851
 O         2.462822         2.427395        -0.764785
 C         1.997691         1.124079        -1.177788
 C         2.858610         0.009253        -0.577579
 H        -0.215544        -1.031194         0.265161
 H        -0.837390         0.577535        -0.361182
 H        -0.145775        -0.727028        -1.517165
 H         1.535896         1.649863         1.666018
 H         1.932180        -0.079657         1.896090
 H         5.032312         0.967023         1.605109
 H         3.915878         2.957434         0.669596
 H         4.498205         2.119249        -0.714808
 H         1.790277         0.985765        -2.208544
 H         3.318443        -0.776418        -1.261956
