19
Iteration:  1283
 C         0.192508        -0.463328        -0.511973
 C         1.436836         0.260342        -0.179320
 C         1.813276         0.762945         1.204913
 C         3.321173         0.779640         0.690122
 O         4.357104         0.071527         1.409760
 C         3.521318         2.288433         0.291640
 O         2.467523         2.550514        -0.796900
 C         2.070957         1.247033        -1.245538
 C         2.839785         0.097781        -0.639457
 H         0.152674        -1.459210        -0.017586
 H        -0.675309         0.111482        -0.149053
 H         0.142968        -0.510721        -1.651574
 H         1.329892         1.733845         1.532358
 H         1.788275         0.074473         2.056354
 H         4.442417         0.446528         2.320947
 H         3.312724         2.921551         1.169579
 H         4.600508         2.451619        -0.079920
 H         1.397932         1.253915        -2.137326
 H         3.344760        -0.576985        -1.247500
