19
Iteration:  1237
 C         0.127068        -0.411308        -0.611819
 C         1.407913         0.248653        -0.206055
 C         1.785721         0.574834         1.216059
 C         3.287858         0.802357         0.689143
 O         4.375627         0.445720         1.601447
 C         3.676754         2.134663         0.085430
 O         2.496893         2.519751        -0.619506
 C         1.982868         1.295276        -1.152453
 C         2.781582         0.041058        -0.725032
 H         0.043065        -1.478788        -0.211177
 H        -0.687003         0.066163        -0.008128
 H        -0.095999        -0.228259        -1.761107
 H         1.341569         1.463102         1.713552
 H         1.661109        -0.283899         1.880467
 H         4.873506        -0.368454         1.269774
 H         3.970148         2.895230         0.828778
 H         4.550152         1.969304        -0.693351
 H         1.802589         1.280773        -2.220759
 H         3.358300        -0.896396        -1.105396
