19
Iteration:   318
 C         0.130369        -0.280087        -0.105695
 C         1.355095         0.432900        -0.063107
 C         1.806771         0.906103         1.314644
 C         3.231641         0.847145         0.657749
 O         4.252815         0.163549         1.275951
 C         3.632825         2.236041         0.053293
 O         2.762854         2.344021        -1.053202
 C         2.083943         1.080238        -1.233562
 C         2.742433        -0.024182        -0.547426
 H         0.177216        -1.239243         0.508202
 H        -0.709123         0.456133         0.255348
 H        -0.182093        -0.516717        -1.179400
 H         1.349143         1.922390         1.445120
 H         1.670656         0.271095         2.207368
 H         3.877089        -0.656291         1.682463
 H         3.518610         3.007223         0.820983
 H         4.734007         2.222063        -0.177217
 H         1.739688         1.070097        -2.237954
 H         3.164649        -0.958036        -0.883317
