19
Iteration:  4324
 C         0.239186        -0.476115        -0.641564
 C         1.446326         0.215440        -0.246152
 C         1.787765         0.515094         1.229139
 C         3.279393         0.782560         0.722074
 O         4.364049         0.280732         1.400888
 C         3.458232         2.217482         0.337218
 O         2.456617         2.623180        -0.653358
 C         2.114348         1.355278        -1.198844
 C         2.864075         0.138092        -0.674373
 H        -0.013003        -1.333611        -0.097389
 H        -0.619832         0.280139        -0.741805
 H         0.408618        -0.820482        -1.641794
 H         1.257456         1.323920         1.646233
 H         1.736415        -0.324662         1.970726
 H         4.179455        -0.581473         1.763740
 H         3.352484         2.900220         1.219624
 H         4.478476         2.354374        -0.098499
 H         1.721142         1.504582        -2.182313
 H         3.476294        -0.649439        -1.192195
