19
Iteration:  3977
 C         0.094884        -0.478741        -0.614189
 C         1.446852         0.253832        -0.389734
 C         1.796334         0.690535         1.056728
 C         3.366959         0.780888         0.681145
 O         4.372531         0.294891         1.599902
 C         3.574647         2.275582         0.256285
 O         2.356186         2.523828        -0.503425
 C         2.090124         1.239369        -1.215215
 C         2.955007         0.061348        -0.763247
 H         0.160428        -1.340425         0.054563
 H        -0.700916         0.197616        -0.117741
 H        -0.173688        -0.898362        -1.565596
 H         1.379585         1.637916         1.384372
 H         1.477942        -0.091119         1.721786
 H         4.159951        -0.328195         2.325467
 H         3.470098         2.549144         1.293471
 H         4.641489         2.419349        -0.238804
 H         1.776702         1.488845        -2.226818
 H         3.631059        -0.522409        -1.377916
