19
Iteration:  2664charge 0 multiplicity 1
 C         0.140905        -0.457201        -0.577693
 C         1.370272         0.206232        -0.210916
 C         1.890977         0.621807         1.282437
 C         3.295290         0.818909         0.638094
 O         4.317103         0.357794         1.506811
 C         3.614232         2.213509         0.187516
 O         2.535320         2.542989        -0.679479
 C         1.965221         1.229482        -1.160825
 C         2.826732         0.117047        -0.707973
 H         0.088197        -1.552499        -0.333260
 H        -0.746310         0.071986        -0.118583
 H        -0.034180        -0.371554        -1.668972
 H         1.449302         1.490752         1.688948
 H         1.861041        -0.292550         1.886809
 H         4.383862        -0.564591         1.706351
 H         3.672110         2.948847         1.002714
 H         4.518656         2.248175        -0.389749
 H         1.724289         1.193877        -2.190755
 H         3.577612        -0.492516        -1.288046
