19
Iteration:  2784charge 0 multiplicity 1
 C         0.229713        -0.519860        -0.602068
 C         1.298353         0.421725        -0.122769
 C         1.815134         0.642303         1.308865
 C         3.294071         0.775768         0.747869
 O         4.392632         0.301776         1.378813
 C         3.526423         2.225883         0.307455
 O         2.597937         2.522404        -0.840272
 C         2.057377         1.326607        -1.180786
 C         2.742087         0.072976        -0.631695
 H         0.289405        -1.450482        -0.001814
 H        -0.740034        -0.205449        -0.433144
 H         0.280241        -0.783646        -1.641015
 H         1.397244         1.470305         1.904523
 H         1.728067        -0.373957         1.784822
 H         4.488938        -0.662696         1.255743
 H         3.283345         2.939010         1.115674
 H         4.527272         2.344292        -0.120337
 H         1.802151         1.157014        -2.245403
 H         2.918980        -0.869493        -1.222720
