19
Iteration:  4009
 C         0.175475        -0.444644        -0.716881
 C         1.468293         0.196388        -0.210710
 C         1.829115         0.572748         1.240400
 C         3.242353         0.847662         0.730622
 O         4.312420         0.293723         1.449651
 C         3.573322         2.253488         0.217323
 O         2.447240         2.544669        -0.609964
 C         2.078037         1.255371        -1.170297
 C         2.915082         0.113637        -0.702370
 H         0.018278        -1.345140        -0.163627
 H        -0.709122         0.272824        -0.533893
 H         0.104662        -0.579995        -1.773120
 H         1.295851         1.380554         1.729703
 H         1.776920        -0.338843         1.862485
 H         4.011299        -0.337203         2.159233
 H         3.521046         2.907579         1.099707
 H         4.585302         2.476964        -0.221049
 H         1.639110         1.290805        -2.169384
 H         3.602066        -0.591851        -1.145347
