19
Iteration:  4240charge 0 multiplicity 1
 C         0.187313        -0.614940        -0.571620
 C         1.356811         0.323230        -0.346810
 C         1.829919         0.574290         1.162260
 C         3.301639         0.732521         0.680229
 O         4.290423         0.245934         1.450384
 C         3.490148         2.301769         0.423740
 O         2.547968         2.651114        -0.679308
 C         2.107061         1.325132        -1.194816
 C         2.870304         0.175830        -0.704931
 H         0.490777        -1.589454        -0.132667
 H        -0.729501        -0.203546        -0.040208
 H        -0.214318        -0.648557        -1.603672
 H         1.333581         1.321962         1.850690
 H         1.812753        -0.399681         1.770448
 H         4.345771        -0.746261         1.450912
 H         3.286958         2.902401         1.297208
 H         4.525828         2.556788         0.104430
 H         1.970310         1.356633        -2.243225
 H         3.423696        -0.621917        -1.234654
