19
Iteration:  3955
 C         0.169877        -0.558129        -0.564211
 C         1.400299         0.336709        -0.281829
 C         1.859690         0.573408         1.116041
 C         3.245989         0.802739         0.695494
 O         4.277927         0.278130         1.505883
 C         3.577953         2.281553         0.364880
 O         2.477767         2.539121        -0.708545
 C         2.131465         1.320650        -1.204106
 C         2.858171         0.153729        -0.698978
 H         0.190646        -1.505781        -0.019661
 H        -0.768075         0.050423        -0.295586
 H         0.106395        -0.715318        -1.626642
 H         1.399089         1.288991         1.795471
 H         1.922032        -0.358749         1.642918
 H         4.087094        -0.599173         1.908679
 H         3.259482         3.008779         1.113447
 H         4.679085         2.410789        -0.050120
 H         2.031035         1.137384        -2.260753
 H         3.457164        -0.628454        -1.157969
