19
Iteration:  4416charge 0 multiplicity 1
 C         0.186281        -0.553043        -0.847555
 C         1.378586         0.248935        -0.217787
 C         1.783652         0.575047         1.243940
 C         3.293862         0.847338         0.717680
 O         4.361021         0.290148         1.447132
 C         3.597494         2.265816         0.183143
 O         2.425521         2.598156        -0.502381
 C         2.082034         1.330662        -1.177341
 C         2.874773         0.103913        -0.576483
 H         0.283880        -1.643584        -0.566621
 H        -0.646031        -0.201825        -0.230499
 H        -0.042708        -0.509185        -1.955553
 H         1.255482         1.437415         1.722994
 H         1.891380        -0.233842         1.976436
 H         3.998548        -0.556008         1.857696
 H         3.769341         2.924658         1.039312
 H         4.536539         2.226360        -0.454575
 H         2.063535         1.268394        -2.300494
 H         3.321554        -0.655154        -1.167061
