19
Iteration:  3174charge 0 multiplicity 1
 C         0.237176        -0.596450        -0.556922
 C         1.334887         0.328144        -0.189637
 C         1.810888         0.613206         1.248743
 C         3.229064         0.786225         0.734361
 O         4.395273         0.236504         1.327596
 C         3.499881         2.251654         0.342679
 O         2.601325         2.560988        -0.757848
 C         2.045519         1.346125        -1.169843
 C         2.812301         0.134645        -0.719945
 H         0.274693        -1.491912        -0.060730
 H        -0.685735        -0.028010        -0.305653
 H         0.007831        -0.833362        -1.631419
 H         1.441683         1.487151         1.772393
 H         1.474649        -0.245847         1.863126
 H         4.374036        -0.063136         2.221872
 H         3.318021         2.885347         1.231445
 H         4.511881         2.441777         0.086996
 H         1.747037         1.348731        -2.234523
 H         3.337656        -0.536848        -1.404854
