19
Iteration:  4551
 C         0.157737        -0.471216        -0.842994
 C         1.383285         0.274460        -0.239271
 C         1.769416         0.577060         1.247778
 C         3.325167         0.890919         0.813102
 O         4.421234         0.299781         1.470177
 C         3.586154         2.209202         0.231685
 O         2.468327         2.578664        -0.568209
 C         2.007801         1.240656        -1.191933
 C         2.815653         0.125444        -0.647886
 H         0.226131        -1.543419        -0.327223
 H        -0.811928        -0.224182        -0.535578
 H         0.371954        -0.741304        -1.890675
 H         1.387089         1.343948         1.973957
 H         1.931319        -0.405075         1.677633
 H         4.041230        -0.461610         1.872760
 H         3.671349         2.993639         1.040342
 H         4.563359         2.123445        -0.337734
 H         1.840326         1.484415        -2.266311
 H         3.380354        -0.688104        -1.141254
