19
Iteration:  1633
 C         0.217118        -0.537124        -0.616742
 C         1.326605         0.279567        -0.172731
 C         1.780406         0.655430         1.243983
 C         3.263379         0.808014         0.742031
 O         4.367301         0.084685         1.440466
 C         3.496628         2.388015         0.295562
 O         2.576393         2.578981        -0.824024
 C         2.009650         1.228980        -1.189376
 C         2.891038         0.239539        -0.547939
 H         0.164300        -1.514689        -0.152385
 H        -0.646278         0.021202        -0.419706
 H         0.186162        -0.683929        -1.668475
 H         1.338576         1.574354         1.837389
 H         1.709605        -0.314278         1.789774
 H         4.807328        -0.251430         0.661228
 H         3.332140         2.993134         1.177199
 H         4.578998         2.413198         0.020376
 H         1.572748         1.188009        -2.229209
 H         3.417908        -0.707193        -0.997464
