19
Iteration:  4657
 C         0.191724        -0.536635        -0.676621
 C         1.336244         0.306879        -0.187186
 C         1.843222         0.492565         1.291750
 C         3.263481         0.874113         0.726498
 O         4.293309         0.238836         1.364362
 C         3.450760         2.333796         0.423491
 O         2.661378         2.535844        -0.776775
 C         2.072659         1.310771        -1.163000
 C         2.843521         0.145225        -0.654231
 H         0.240173        -1.396575        -0.099636
 H        -0.715859         0.067052        -0.742179
 H         0.313297        -0.796056        -1.777987
 H         1.212356         1.170834         1.910555
 H         2.023030        -0.434261         1.827202
 H         4.122676        -0.666636         1.517431
 H         3.064274         3.102344         1.122419
 H         4.508881         2.527797         0.252257
 H         1.802235         1.484652        -2.258664
 H         3.515904        -0.485832        -1.345077
