19
Iteration:  1711
 C         0.144637        -0.437204        -0.560387
 C         1.397457         0.264419        -0.220064
 C         1.776958         0.655881         1.164084
 C         3.334754         0.791930         0.702896
 O         4.308935         0.152540         1.434374
 C         3.567661         2.255205         0.200442
 O         2.433091         2.565700        -0.673026
 C         2.054670         1.233227        -1.177882
 C         2.970513         0.109324        -0.628050
 H         0.047217        -1.341792         0.022655
 H        -0.714058         0.138006        -0.286721
 H         0.135148        -0.673771        -1.573428
 H         1.125828         1.415327         1.653186
 H         1.685685        -0.113958         1.929972
 H         4.898037         0.753477         1.846234
 H         3.516630         2.957638         1.059164
 H         4.570520         2.272016        -0.240558
 H         1.760073         1.262196        -2.229872
 H         3.517629        -0.557233        -1.200043
