19
Iteration:   187
 C         0.094339        -0.193311        -0.121756
 C         1.374712         0.389497         0.010076
 C         1.858846         0.978001         1.237694
 C         3.241114         0.824525         0.612865
 O         4.243909         0.247430         1.289346
 C         3.558463         2.159029         0.104355
 O         2.787167         2.328783        -1.052770
 C         2.108095         1.064960        -1.214851
 C         2.722317        -0.129413        -0.521820
 H        -0.065657        -0.787488         0.802071
 H        -0.725060         0.562369        -0.013649
 H         0.057196        -0.783860        -1.040982
 H         1.416643         2.013935         1.565177
 H         1.728940         0.380704         2.178641
 H         4.192094        -0.677712         1.077219
 H         3.335588         2.925134         0.847919
 H         4.644899         2.118309        -0.234953
 H         1.670480         1.005914        -2.301782
 H         3.140317        -1.018552        -1.022982
