19
Iteration:  4782charge 0 multiplicity 1
 C         0.258733        -0.692585        -0.645991
 C         1.274582         0.374067        -0.233902
 C         1.751545         0.586385         1.234300
 C         3.219957         0.824896         0.722697
 O         4.368870         0.189060         1.385256
 C         3.527341         2.325857         0.387904
 O         2.687338         2.615321        -0.732691
 C         2.034281         1.386675        -1.170279
 C         2.820919         0.158545        -0.667584
 H         0.391744        -1.769950        -0.266067
 H        -0.722266        -0.373294        -0.432492
 H         0.385961        -0.654360        -1.695308
 H         1.284457         1.376793         1.876168
 H         1.665854        -0.268903         1.890596
 H         4.128247        -0.677414         1.700224
 H         3.162511         3.004426         1.184202
 H         4.570853         2.454179         0.041374
 H         1.827100         1.394042        -2.236094
 H         3.142489        -0.826041        -1.096260
