19
Iteration:  2299charge 0 multiplicity 1
 C         0.157123        -0.478806        -0.440258
 C         1.481987         0.219751        -0.263310
 C         1.842735         0.575311         1.188914
 C         3.298315         0.824291         0.694354
 O         4.412570         0.207145         1.438007
 C         3.477806         2.302259         0.294561
 O         2.572022         2.570328        -0.771952
 C         1.982549         1.291239        -1.138174
 C         2.827892         0.153832        -0.729368
 H         0.080146        -1.401029         0.097780
 H        -0.734910         0.050276        -0.164591
 H        -0.149614        -0.758964        -1.558718
 H         1.228532         1.442042         1.436141
 H         1.781737        -0.300064         1.899339
 H         3.992363        -0.538562         1.935868
 H         3.206969         2.948043         1.210973
 H         4.516290         2.533003        -0.185185
 H         1.601046         1.425967        -2.179217
 H         3.293754        -0.408933        -1.496799
