19
Iteration:   908
 C         0.166085        -0.460717        -0.332988
 C         1.363319         0.423373        -0.134597
 C         1.819182         0.749291         1.303223
 C         3.239033         0.788550         0.642924
 O         4.200965         0.201681         1.451711
 C         3.608589         2.128261         0.154922
 O         2.708981         2.459969        -0.902041
 C         2.013513         1.245909        -1.235320
 C         2.796644         0.114983        -0.689843
 H         0.376649        -1.229203         0.430941
 H        -0.747347        -0.037575        -0.041451
 H         0.158216        -0.818586        -1.401764
 H         1.332902         1.641240         1.770325
 H         1.848091        -0.024073         2.117610
 H         5.057315         0.643021         1.415012
 H         3.452123         2.954353         0.886011
 H         4.728542         2.040790        -0.127488
 H         1.518134         1.312319        -2.220997
 H         3.015901        -0.864747        -1.195864
