19
Iteration:  2893
 C         0.118587        -0.569814        -0.642697
 C         1.315922         0.310410        -0.143261
 C         1.734126         0.626110         1.343381
 C         3.233851         0.801507         0.728008
 O         4.472970         0.279668         1.314383
 C         3.520303         2.277517         0.336636
 O         2.701380         2.530167        -0.850648
 C         1.992226         1.269360        -1.111144
 C         2.779315         0.160361        -0.631930
 H         0.140981        -1.664705        -0.072665
 H        -0.842238        -0.086876        -0.656833
 H         0.398722        -0.672040        -1.731748
 H         1.351142         1.529127         1.901779
 H         1.746085        -0.257701         2.036591
 H         4.470777        -0.628898         1.607989
 H         3.282886         3.020983         1.174524
 H         4.609946         2.582776         0.083852
 H         1.921591         1.437076        -2.195147
 H         3.181867        -0.633593        -1.185672
