19
Iteration:   571
 C         0.017530        -0.373389        -0.295038
 C         1.290789         0.495784        -0.081930
 C         1.858821         0.772660         1.272048
 C         3.291742         0.709884         0.644457
 O         4.411459         0.303521         1.431758
 C         3.577171         2.111450         0.133660
 O         2.738022         2.439553        -1.008985
 C         2.053604         1.170551        -1.227108
 C         2.704143         0.030035        -0.626298
 H        -0.199482        -0.855996         0.634149
 H        -0.842480         0.281398        -0.480392
 H         0.032741        -1.216455        -1.001957
 H         1.576045         1.760286         1.710239
 H         1.739231        -0.112560         1.902426
 H         4.177824         0.390991         2.359354
 H         3.696447         2.911977         0.871251
 H         4.678969         1.867341        -0.318168
 H         1.527812         0.981517        -2.222664
 H         3.084107        -0.817427        -1.135929
