19
Iteration:  1656charge 0 multiplicity 1
 C         0.184491        -0.524079        -0.596674
 C         1.356723         0.280301        -0.216400
 C         1.853929         0.566121         1.223421
 C         3.277007         0.743154         0.658537
 O         4.227071         0.303220         1.559287
 C         3.618343         2.266749         0.200192
 O         2.504519         2.549703        -0.661271
 C         2.070499         1.355764        -1.142922
 C         2.828445         0.120781        -0.725357
 H         0.210292        -1.381693         0.084517
 H        -0.755940         0.004134        -0.498066
 H         0.189684        -0.917383        -1.563412
 H         1.412335         1.493986         1.799291
 H         1.997626        -0.366103         1.816545
 H         4.935826        -0.162860         1.087417
 H         3.756170         3.047887         0.993381
 H         4.591985         2.070309        -0.301769
 H         1.708062         1.510729        -2.197925
 H         3.344076        -0.562481        -1.452588
