19
Iteration:   267charge 0 multiplicity 1
 C         0.004999        -0.262050        -0.246919
 C         1.351739         0.363045        -0.047564
 C         1.927034         0.931217         1.208937
 C         3.313770         0.758453         0.637050
 O         4.261885         0.278912         1.520296
 C         3.797341         2.023445        -0.065438
 O         2.633720         2.408076        -0.942247
 C         1.928673         1.163307        -1.170883
 C         2.685105        -0.094548        -0.588779
 H        -0.128853        -1.163511         0.293345
 H        -0.700942         0.455123         0.125920
 H        -0.185211        -0.462767        -1.289466
 H         1.657449         1.934105         1.579253
 H         1.925331         0.090305         1.925533
 H         5.056476         0.797742         1.435519
 H         4.028084         2.776548         0.717676
 H         4.691700         1.805893        -0.665585
 H         1.467282         1.229193        -2.096292
 H         3.129471        -0.974896        -1.059531
