19
Iteration:  4981charge 0 multiplicity 1
 C         0.116268        -0.579899        -0.593221
 C         1.361709         0.330840        -0.363514
 C         1.784027         0.699742         1.112300
 C         3.293349         0.729499         0.661109
 O         4.422774         0.204809         1.558756
 C         3.531816         2.284607         0.296164
 O         2.438751         2.544062        -0.561041
 C         2.107312         1.333592        -1.240125
 C         2.933132         0.146029        -0.691202
 H         0.393977        -1.606785        -0.098996
 H        -0.855363        -0.168097        -0.312905
 H         0.119874        -0.818036        -1.664856
 H         1.283048         1.534128         1.601624
 H         1.623885        -0.299606         1.514303
 H         3.942406        -0.186221         2.307319
 H         3.515970         2.887444         1.196512
 H         4.553540         2.360586        -0.172379
 H         1.822813         1.476983        -2.282021
 H         3.664167        -0.408250        -1.290735
