19
Iteration:  4181
 C         0.290912        -0.556753        -0.669315
 C         1.353795         0.347830        -0.239986
 C         1.748080         0.635013         1.235451
 C         3.221197         0.804031         0.733860
 O         4.379187         0.247516         1.369471
 C         3.490717         2.276991         0.333294
 O         2.520065         2.550677        -0.597069
 C         2.137695         1.299184        -1.181633
 C         2.801030         0.145487        -0.679876
 H         0.247737        -1.430439        -0.039157
 H        -0.750626        -0.140016        -0.651749
 H         0.624556        -0.953896        -1.621590
 H         1.178975         1.392181         1.714296
 H         1.786047        -0.300946         1.828041
 H         4.410453        -0.693391         1.265458
 H         3.475542         3.007628         1.179360
 H         4.425848         2.329526        -0.238527
 H         1.696380         1.397778        -2.216115
 H         3.373726        -0.707044        -1.019722
