19
Iteration:  1752charge 0 multiplicity 1
 C         0.157255        -0.495027        -0.573254
 C         1.308458         0.368327        -0.145814
 C         1.788687         0.648500         1.330437
 C         3.260094         0.780585         0.728699
 O         4.514891         0.198027         1.310222
 C         3.359414         2.299572         0.381257
 O         2.712338         2.506525        -0.957541
 C         2.047570         1.313133        -1.147726
 C         2.788846         0.111065        -0.611414
 H         0.358664        -1.556053        -0.184182
 H        -0.888835        -0.242999        -0.475712
 H         0.206319        -0.582475        -1.744969
 H         1.397404         1.445839         1.943591
 H         1.742025        -0.303377         1.870749
 H         4.123000        -0.199371         2.165815
 H         2.973184         2.855436         1.195229
 H         4.407423         2.681358         0.257954
 H         1.603799         1.120572        -2.144082
 H         3.308843        -0.717378        -1.150254
