19
Iteration:   464
 C         0.014572        -0.442756        -0.164298
 C         1.308031         0.451934        -0.109204
 C         1.744007         0.787280         1.298004
 C         3.214442         0.806759         0.752852
 O         4.412077         0.266638         1.350676
 C         3.702262         2.129861         0.109203
 O         2.848042         2.358970        -1.096836
 C         2.039981         1.244121        -1.262452
 C         2.657329         0.040894        -0.613633
 H         0.204391        -1.374516         0.433266
 H        -0.885901         0.239395         0.166087
 H        -0.308985        -0.574668        -1.226912
 H         1.435357         1.666172         1.877885
 H         1.482135        -0.044592         1.978702
 H         4.368744         0.579921         2.256251
 H         3.691720         3.030862         0.775179
 H         4.717049         2.055222        -0.205707
 H         1.423588         1.162511        -2.249001
 H         2.935547        -0.889568        -1.078057
