19
Iteration:  4384charge 0 multiplicity 1
 C         0.304476        -0.565588        -0.635376
 C         1.384895         0.315248        -0.249321
 C         1.816908         0.565289         1.203955
 C         3.276037         0.780655         0.693937
 O         4.257243         0.196356         1.473558
 C         3.468934         2.248080         0.351319
 O         2.554469         2.647087        -0.710201
 C         1.999448         1.328664        -1.134302
 C         2.916409         0.184355        -0.708762
 H         0.495365        -1.542012        -0.016580
 H        -0.654967        -0.241743        -0.206770
 H         0.245205        -0.805698        -1.755358
 H         1.420870         1.576614         1.568984
 H         1.808410        -0.206936         1.983480
 H         4.173554        -0.724192         1.296968
 H         3.254585         2.901365         1.206578
 H         4.511792         2.421842        -0.020312
 H         1.737646         1.447074        -2.221666
 H         3.391916        -0.510229        -1.368136
