19
Iteration:  4604charge 0 multiplicity 1
 C         0.177666        -0.614850        -0.623022
 C         1.372027         0.308433        -0.290584
 C         1.836863         0.700598         1.090285
 C         3.359587         0.791436         0.646744
 O         4.298925         0.261061         1.533435
 C         3.584037         2.246072         0.392370
 O         2.453064         2.493854        -0.567196
 C         2.100164         1.319886        -1.256735
 C         2.839808         0.177877        -0.746662
 H         0.330353        -1.710877        -0.314982
 H        -0.597271        -0.163819        -0.059491
 H        -0.156178        -0.540720        -1.710020
 H         1.555632         1.660149         1.688528
 H         1.763442        -0.153201         1.734024
 H         4.116886        -0.642788         1.714668
 H         3.454145         2.942183         1.262846
 H         4.593402         2.604462         0.037311
 H         1.703944         1.609674        -2.301618
 H         3.340133        -0.750624        -1.121804
