19
Iteration:  3130charge 0 multiplicity 1
 C         0.085825        -0.391285        -0.713867
 C         1.389776         0.158749        -0.196096
 C         1.878675         0.653152         1.235564
 C         3.366696         0.832041         0.697893
 O         4.375517         0.289266         1.533843
 C         3.529630         2.256332         0.162202
 O         2.398103         2.489736        -0.591468
 C         2.019344         1.236285        -1.131910
 C         2.918353         0.105401        -0.628447
 H        -0.064622        -1.357004        -0.390281
 H        -0.750270         0.366415        -0.571625
 H         0.017317        -0.524016        -1.871027
 H         1.340719         1.534569         1.674827
 H         1.991841        -0.129951         2.062765
 H         4.888825        -0.241718         0.929575
 H         3.771950         3.027056         0.944498
 H         4.475545         2.174733        -0.400514
 H         1.717681         1.050136        -2.192632
 H         3.347545        -0.489422        -1.414764
