19
Iteration:  3460charge 0 multiplicity 1
 C         0.159767        -0.567878        -0.577745
 C         1.415645         0.269499        -0.327543
 C         1.865408         0.570958         1.145870
 C         3.324324         0.823290         0.745524
 O         4.326134         0.039186         1.354078
 C         3.427795         2.361602         0.400678
 O         2.470912         2.632146        -0.682085
 C         2.053105         1.291843        -1.190433
 C         2.972827         0.205439        -0.643874
 H         0.149830        -1.351984         0.107479
 H        -0.700297         0.088756        -0.211446
 H         0.044168        -1.121894        -1.526954
 H         1.362469         1.416063         1.611512
 H         1.716703        -0.341739         1.711760
 H         4.461816         0.568954         2.122092
 H         3.106718         2.933793         1.282767
 H         4.325401         2.679509        -0.075597
 H         1.781124         1.308935        -2.272862
 H         3.752435        -0.300693        -1.201044
