19
Iteration:  2439charge 0 multiplicity 1
 C         0.171925        -0.619832        -0.424879
 C         1.363475         0.254821        -0.244719
 C         1.845153         0.644248         1.087310
 C         3.268531         0.847711         0.561171
 O         4.297880         0.287952         1.434301
 C         3.570494         2.241991         0.287907
 O         2.586220         2.600303        -0.594020
 C         2.053736         1.322921        -1.145669
 C         2.848264         0.154530        -0.790671
 H         0.252659        -1.509416         0.435395
 H        -0.846326        -0.112659        -0.206155
 H         0.128694        -1.192097        -1.443136
 H         1.234355         1.461578         1.655044
 H         1.944810        -0.279281         1.723011
 H         4.151851        -0.672946         1.689356
 H         3.545842         2.770877         1.294413
 H         4.548811         2.330655        -0.192717
 H         1.559429         1.622399        -2.084821
 H         3.257763        -0.691466        -1.348288
