19
Iteration:  4747
 C         0.175729        -0.497274        -0.595159
 C         1.430214         0.330201        -0.253153
 C         1.830801         0.614674         1.140769
 C         3.329370         0.726852         0.737536
 O         4.288203         0.224556         1.539877
 C         3.495465         2.278841         0.313931
 O         2.472220         2.543467        -0.608791
 C         2.037315         1.268037        -1.247424
 C         2.996703         0.204436        -0.778290
 H         0.121929        -1.577995        -0.273301
 H        -0.708968         0.031909        -0.291526
 H        -0.006059        -0.513795        -1.682721
 H         1.441921         1.544811         1.641819
 H         1.742890        -0.279025         1.712016
 H         4.142786        -0.722541         1.587931
 H         3.375326         3.051264         1.115515
 H         4.487670         2.509347        -0.051179
 H         1.688521         1.295815        -2.252823
 H         3.381433        -0.649510        -1.279151
