19
Iteration:  3879charge 0 multiplicity 1
 C         0.225847        -0.472990        -0.638535
 C         1.444415         0.296581        -0.269286
 C         1.723407         0.598833         1.203632
 C         3.283273         0.775272         0.735293
 O         4.391799         0.323733         1.455342
 C         3.515472         2.245205         0.378078
 O         2.477271         2.539370        -0.672397
 C         2.099645         1.248266        -1.299102
 C         2.853270         0.121489        -0.636074
 H         0.141289        -1.492278        -0.204062
 H        -0.682281         0.141855        -0.289714
 H         0.276617        -0.675122        -1.689818
 H         1.377592         1.547708         1.687819
 H         1.525458        -0.228451         1.876437
 H         4.234415        -0.583071         1.823610
 H         3.415287         2.965481         1.182499
 H         4.478211         2.407702        -0.155833
 H         1.643420         1.129131        -2.266678
 H         3.323438        -0.684085        -1.242674
