19
Iteration:  2696charge 0 multiplicity 1
 C         0.064119        -0.308734        -0.465471
 C         1.449531         0.253425        -0.304763
 C         1.790269         0.692905         1.087867
 C         3.382775         0.721484         0.679229
 O         4.421384         0.290579         1.514957
 C         3.534774         2.331213         0.189108
 O         2.354899         2.442060        -0.561287
 C         2.081500         1.135999        -1.221104
 C         2.941803         0.044576        -0.708659
 H         0.081130        -1.330453         0.000401
 H        -0.642712         0.302658         0.014997
 H        -0.125195        -0.388862        -1.542217
 H         1.380425         1.655751         1.394604
 H         1.604017        -0.115730         1.824653
 H         4.086724        -0.568658         1.864545
 H         3.449051         3.005193         1.022806
 H         4.308567         2.550814        -0.461120
 H         2.036776         1.213133        -2.269855
 H         3.842536        -0.417724        -1.241880
