19
Iteration:  2191
 C         0.168624        -0.523486        -0.373269
 C         1.365409         0.373273        -0.317384
 C         1.873379         0.573133         1.202726
 C         3.254788         0.831023         0.680035
 O         4.360725         0.163735         1.342437
 C         3.431258         2.313466         0.392726
 O         2.549838         2.572066        -0.773348
 C         2.122833         1.328259        -1.247459
 C         2.918238         0.113710        -0.686965
 H         0.363080        -1.238910         0.416584
 H        -0.632329         0.123074        -0.030169
 H         0.005408        -1.278330        -1.217473
 H         1.334665         1.389540         1.696207
 H         1.596947        -0.368891         1.772278
 H         4.177403        -0.808828         1.491142
 H         2.977406         2.922287         1.178351
 H         4.372224         2.739003         0.204242
 H         1.562434         1.282447        -2.215849
 H         3.446270        -0.555952        -1.281178
