19
Iteration:  3428
 C         0.257258        -0.529576        -0.728239
 C         1.410038         0.280280        -0.256229
 C         1.843775         0.613136         1.207924
 C         3.289386         0.802135         0.658750
 O         4.384598         0.306458         1.419345
 C         3.564876         2.184349         0.276518
 O         2.447311         2.550304        -0.493408
 C         1.991857         1.277812        -1.191709
 C         2.826896         0.108866        -0.704386
 H         0.455977        -1.467647        -0.303989
 H        -0.737612        -0.039934        -0.358980
 H         0.146467        -0.471004        -1.834795
 H         1.249486         1.381959         1.657828
 H         1.613850        -0.260691         1.742830
 H         4.071101         0.399140         2.382772
 H         3.843836         2.737095         1.239067
 H         4.421241         2.371976        -0.281434
 H         1.357617         1.511902        -2.082323
 H         3.439527        -0.631774        -1.190361
