19
Iteration:  2445charge 0 multiplicity 1
 C         0.181406        -0.661382        -0.383340
 C         1.353851         0.277350        -0.245260
 C         1.833311         0.650843         1.064445
 C         3.288045         0.846874         0.595250
 O         4.304770         0.232957         1.417828
 C         3.544463         2.286603         0.356898
 O         2.615311         2.605238        -0.653623
 C         2.086291         1.316861        -1.178132
 C         2.814114         0.147387        -0.780430
 H         0.230964        -1.430659         0.300810
 H        -0.779775        -0.167380        -0.224459
 H         0.077739        -1.196311        -1.265706
 H         1.300000         1.339577         1.683983
 H         2.004019        -0.215364         1.708111
 H         4.112911        -0.698439         1.659885
 H         3.296745         2.925661         1.195560
 H         4.531315         2.606643        -0.085895
 H         1.521592         1.797170        -2.005294
 H         3.150714        -0.654848        -1.416770
