19
Iteration:  4465
 C         0.191327        -0.459124        -0.628275
 C         1.414138         0.225755        -0.271457
 C         1.824204         0.511244         1.171297
 C         3.289921         0.757017         0.738682
 O         4.340542         0.324687         1.505100
 C         3.467908         2.257891         0.352495
 O         2.473446         2.581319        -0.685585
 C         2.094647         1.329145        -1.209805
 C         2.917980         0.125074        -0.719897
 H         0.120475        -1.509293        -0.183650
 H        -0.696972         0.182648        -0.328769
 H         0.185711        -0.593056        -1.725072
 H         1.440181         1.368862         1.809562
 H         1.710822        -0.440675         1.775518
 H         4.229371        -0.608628         1.696455
 H         3.326937         2.990698         1.168449
 H         4.455649         2.409924        -0.084618
 H         1.687255         1.488844        -2.214616
 H         3.495400        -0.659105        -1.284021
