19
Iteration:  4536
 C         0.208000        -0.556195        -0.739033
 C         1.319457         0.374526        -0.241230
 C         1.861404         0.610179         1.209998
 C         3.250943         0.737152         0.644783
 O         4.379326         0.366301         1.418328
 C         3.523408         2.256105         0.400271
 O         2.532392         2.482862        -0.614101
 C         2.101717         1.314548        -1.158491
 C         2.806931         0.098285        -0.645637
 H         0.069649        -1.479304        -0.271553
 H        -0.712321         0.058477        -0.739652
 H         0.386205        -0.710072        -1.840318
 H         1.369469         1.433254         1.762850
 H         1.745417        -0.310441         1.778271
 H         4.255890        -0.504788         1.828242
 H         3.348540         2.888685         1.272099
 H         4.537760         2.515391         0.027411
 H         1.707552         1.317430        -2.145799
 H         3.223766        -0.719971        -1.247929
