19
Iteration:  2620
 C         0.237963        -0.635946        -0.527299
 C         1.290407         0.442159        -0.114769
 C         1.795098         0.673103         1.353823
 C         3.215252         0.789809         0.683711
 O         4.367561         0.265102         1.229125
 C         3.499736         2.255292         0.358546
 O         2.672762         2.497227        -0.812697
 C         2.128799         1.342983        -1.235077
 C         2.714656         0.130560        -0.592933
 H         0.411224        -1.602308         0.082797
 H        -0.896993        -0.388776        -0.633603
 H         0.554746        -0.774713        -1.601169
 H         1.507466         1.492988         1.945158
 H         1.846781        -0.358181         1.728084
 H         4.090910        -0.476832         1.758705
 H         3.093612         2.926983         1.134722
 H         4.596832         2.382214         0.131828
 H         1.759688         1.434740        -2.237813
 H         3.189721        -0.715712        -1.155305
