19
Iteration:  4843
 C         0.185406        -0.389541        -0.668822
 C         1.454243         0.290426        -0.330882
 C         1.946629         0.644879         1.212122
 C         3.336935         0.774903         0.724918
 O         4.318087         0.261558         1.591682
 C         3.506579         2.266628         0.255805
 O         2.373741         2.460943        -0.576704
 C         2.023850         1.234174        -1.237367
 C         2.936609         0.092795        -0.742978
 H        -0.089245        -1.293514        -0.204132
 H        -0.604999         0.442576        -0.602099
 H         0.048513        -0.548744        -1.811148
 H         1.479150         1.489773         1.802324
 H         1.877329        -0.329766         1.770834
 H         4.023200        -0.571334         1.917951
 H         3.288897         2.879085         1.164151
 H         4.519318         2.532215        -0.181482
 H         1.618334         1.453715        -2.236558
 H         3.467866        -0.504054        -1.468804
