19
Iteration:  4156charge 0 multiplicity 1
 C         0.088311        -0.538570        -0.818234
 C         1.316054         0.236697        -0.348149
 C         1.815472         0.629838         1.186055
 C         3.413037         0.775460         0.704014
 O         4.488991         0.380062         1.519241
 C         3.597016         2.179282         0.238930
 O         2.413793         2.552127        -0.513607
 C         2.032740         1.310009        -1.061258
 C         2.807969         0.104416        -0.652474
 H        -0.010560        -1.487798        -0.198926
 H        -0.763621        -0.027786        -0.631854
 H         0.251898        -0.851572        -1.874040
 H         1.361926         1.555563         1.630475
 H         1.604275        -0.213262         1.725359
 H         4.149056        -0.343609         2.026608
 H         3.716906         2.968202         1.025896
 H         4.480594         2.171530        -0.454490
 H         1.734443         1.416955        -2.085204
 H         3.563839        -0.379374        -1.294490
