19
Iteration:  4486charge 0 multiplicity 1
 C         0.103034        -0.483428        -0.575922
 C         1.330393         0.268120        -0.325113
 C         1.867719         0.431550         1.224368
 C         3.292711         0.847243         0.688188
 O         4.263591         0.243935         1.408706
 C         3.459381         2.366981         0.412772
 O         2.564005         2.642743        -0.747207
 C         2.164577         1.220824        -1.193922
 C         2.977162         0.208756        -0.617940
 H         0.191449        -1.378184         0.225219
 H        -0.818766         0.099112        -0.338857
 H         0.165976        -1.077830        -1.522147
 H         1.061575         0.996328         1.820113
 H         1.905118        -0.649163         1.522589
 H         4.069120        -0.746226         1.285419
 H         3.043240         2.993828         1.241246
 H         4.505735         2.684285         0.201527
 H         1.986604         1.156267        -2.272312
 H         3.690104        -0.488453        -1.162948
