19
Iteration:  3681charge 0 multiplicity 1
 C         0.216481        -0.441158        -0.687848
 C         1.466357         0.257337        -0.236828
 C         1.774393         0.603123         1.175841
 C         3.253453         0.783711         0.710951
 O         4.422900         0.322930         1.499749
 C         3.514786         2.227336         0.237747
 O         2.383828         2.487941        -0.583948
 C         2.090345         1.286272        -1.145882
 C         2.910485         0.074304        -0.738134
 H         0.008878        -1.325880        -0.151425
 H        -0.645784         0.311753        -0.535771
 H         0.207960        -0.449136        -1.759042
 H         1.355404         1.586286         1.637990
 H         1.680302        -0.229351         1.908752
 H         3.994158        -0.257750         2.115244
 H         3.585230         2.796862         1.163959
 H         4.477402         2.368775        -0.263664
 H         1.646360         1.335158        -2.168899
 H         3.448284        -0.519799        -1.449787
