19
Iteration:   244charge 0 multiplicity 1
 C        -0.028439        -0.192303        -0.344436
 C         1.332397         0.385900         0.025327
 C         1.884264         0.767936         1.337259
 C         3.341232         0.770801         0.664388
 O         4.297669         0.336905         1.490032
 C         3.838277         2.011024        -0.267745
 O         2.620744         2.388732        -0.866140
 C         1.979591         1.131599        -1.156170
 C         2.681254        -0.026376        -0.583271
 H        -0.211710        -0.978628         0.340077
 H        -0.832392         0.533021        -0.187659
 H        -0.078971        -0.656125        -1.314530
 H         1.579242         1.756542         1.761342
 H         1.985334        -0.137716         1.962996
 H         4.375966         1.125784         2.096447
 H         4.312403         2.822024         0.321537
 H         4.590401         1.617712        -0.976609
 H         1.563844         1.133264        -2.102229
 H         3.057329        -0.933036        -1.054336
