19
Iteration:  1450
 C         0.155574        -0.609707        -0.514055
 C         1.337885         0.452698        -0.197254
 C         1.887682         0.527285         1.251380
 C         3.273274         0.765081         0.661270
 O         4.294812         0.254056         1.607065
 C         3.531047         2.246585         0.376801
 O         2.705202         2.523911        -0.892359
 C         2.006482         1.347897        -1.258392
 C         2.713924         0.218967        -0.743231
 H         0.547397        -1.501152        -0.007163
 H        -0.900889        -0.227073        -0.360727
 H         0.106334        -0.819007        -1.552649
 H         1.567774         1.255138         2.002226
 H         1.873942        -0.433465         1.761499
 H         5.041638        -0.249536         1.135287
 H         3.026881         2.972227         1.059282
 H         4.592905         2.519583         0.179476
 H         1.567987         1.363423        -2.223160
 H         3.084396        -0.622230        -1.410845
