19
Iteration:  2186charge 0 multiplicity 1
 C         0.171037        -0.536543        -0.375277
 C         1.372874         0.362190        -0.313871
 C         1.868165         0.603855         1.188483
 C         3.220146         0.759777         0.723087
 O         4.421177         0.147132         1.345875
 C         3.389628         2.348662         0.432970
 O         2.549346         2.556295        -0.795525
 C         2.112049         1.318826        -1.264599
 C         2.894633         0.156608        -0.722011
 H         0.295830        -1.259894         0.468003
 H        -0.636663         0.153203        -0.022416
 H        -0.033076        -1.101356        -1.298074
 H         1.466209         1.480040         1.744354
 H         1.673203        -0.196887         1.874337
 H         4.092364        -0.727395         1.587472
 H         2.890347         2.958263         1.223477
 H         4.484327         2.585404         0.073042
 H         1.678383         1.323379        -2.241748
 H         3.603885        -0.543069        -1.315789
