19
Iteration:  3834
 C         0.074494        -0.485332        -0.595949
 C         1.369011         0.257358        -0.307094
 C         1.955012         0.590023         1.116047
 C         3.351235         0.832202         0.604059
 O         4.267264         0.331151         1.660557
 C         3.600862         2.282092         0.254644
 O         2.413579         2.552495        -0.532156
 C         2.081673         1.196390        -1.273404
 C         2.956668         0.082026        -0.794852
 H        -0.119059        -1.336465         0.051627
 H        -0.708868         0.326089        -0.212994
 H         0.074041        -0.874543        -1.605902
 H         1.305625         1.257437         1.763630
 H         1.916883        -0.382651         1.632845
 H         3.707901        -0.448560         1.981064
 H         3.392374         2.889655         1.100522
 H         4.585255         2.591319        -0.238262
 H         2.025555         1.499907        -2.298325
 H         3.638450        -0.629478        -1.328996
