19
Iteration:  1863
 C         0.191115        -0.531740        -0.629259
 C         1.363780         0.310980        -0.147329
 C         1.803250         0.661947         1.254097
 C         3.334264         0.825081         0.663831
 O         4.427212         0.251820         1.425310
 C         3.593401         2.272572         0.202488
 O         2.510598         2.544239        -0.680657
 C         1.996171         1.223307        -1.164568
 C         2.744394         0.094749        -0.643711
 H         0.050478        -1.568768        -0.108061
 H        -0.643283         0.213821        -0.597266
 H         0.517708        -0.795545        -1.687804
 H         1.418778         1.578216         1.661526
 H         1.838078        -0.165141         1.966176
 H         4.078283        -0.329131         2.101734
 H         3.637336         3.025655         1.051420
 H         4.598461         2.389909        -0.363028
 H         1.421206         1.338464        -2.095585
 H         3.142745        -0.621566        -1.333061
