19
Iteration:  4576charge 0 multiplicity 1
 C         0.261340        -0.486490        -0.746027
 C         1.422659         0.193703        -0.208799
 C         1.760140         0.554887         1.161988
 C         3.339819         0.748720         0.698662
 O         4.257834         0.280184         1.542798
 C         3.568232         2.255854         0.094982
 O         2.450207         2.604544        -0.581639
 C         2.046048         1.283257        -1.006843
 C         2.906647         0.202447        -0.675317
 H         0.071576        -1.573948        -0.544012
 H        -0.585056        -0.078818        -0.084370
 H         0.212534        -0.335213        -1.786174
 H         1.430594         1.473373         1.606934
 H         1.727520        -0.351874         1.845311
 H         3.931960        -0.583012         1.866460
 H         3.833007         3.057967         0.786147
 H         4.425022         2.051531        -0.593864
 H         1.795057         1.540486        -2.016894
 H         3.545994        -0.296585        -1.335518
