19
Iteration:  2858charge 0 multiplicity 1
 C         0.160531        -0.445618        -0.490720
 C         1.395869         0.307088        -0.252638
 C         1.853827         0.578341         1.230441
 C         3.253172         0.779336         0.650658
 O         4.334238         0.327488         1.498761
 C         3.610911         2.249326         0.218348
 O         2.488236         2.512353        -0.650671
 C         2.067901         1.314283        -1.224574
 C         2.855252         0.111595        -0.768950
 H         0.237241        -1.554831        -0.073098
 H        -0.813451        -0.043973        -0.087477
 H         0.081860        -0.612373        -1.654773
 H         1.503863         1.312255         2.019353
 H         1.921166        -0.413564         1.663910
 H         3.867650        -0.221324         2.130588
 H         3.617799         2.847517         1.102258
 H         4.528502         2.239194        -0.463817
 H         1.854639         1.231105        -2.294951
 H         3.052565        -0.859368        -1.326536
