19
Iteration:  2642charge 0 multiplicity 1
 C         0.211784        -0.587078        -0.626943
 C         1.286359         0.403732        -0.168789
 C         1.749294         0.551413         1.296215
 C         3.306427         0.816281         0.754721
 O         4.435956         0.314459         1.405508
 C         3.568015         2.217283         0.238697
 O         2.659823         2.584344        -0.829661
 C         1.998118         1.299445        -1.132222
 C         2.714133         0.162895        -0.614994
 H         0.447466        -1.532919        -0.020799
 H        -0.864421        -0.262294        -0.316968
 H         0.114661        -0.794916        -1.724802
 H         1.458399         1.369084         1.856813
 H         1.786662        -0.474103         1.682504
 H         4.330700        -0.638938         1.716371
 H         3.482871         3.019996         0.995333
 H         4.544185         2.230277        -0.262707
 H         1.508048         1.247629        -2.065115
 H         3.034497        -0.813079        -1.100944
