19
Iteration:  1997
 C         0.100442        -0.517831        -0.686157
 C         1.330949         0.322894        -0.160774
 C         1.879261         0.541808         1.278754
 C         3.332768         0.761754         0.676716
 O         4.501494         0.411433         1.497549
 C         3.577158         2.162926         0.166724
 O         2.512029         2.594642        -0.666073
 C         1.968802         1.303593        -1.121473
 C         2.823714         0.094600        -0.728157
 H        -0.154139        -1.539402        -0.184859
 H        -0.885666        -0.007506        -0.450612
 H         0.066236        -0.712296        -1.737013
 H         1.667362         1.469428         1.825750
 H         1.555884        -0.278127         1.882498
 H         4.310631        -0.400213         2.067770
 H         3.481458         2.838494         1.005158
 H         4.480941         1.975824        -0.368635
 H         1.424150         1.250075        -2.038435
 H         3.069365        -0.633891        -1.473971
