19
Iteration:  3987charge 0 multiplicity 1
 C         0.145415        -0.458904        -0.592231
 C         1.461408         0.177412        -0.353901
 C         1.800979         0.704591         1.033439
 C         3.288397         0.695802         0.667182
 O         4.375340         0.334459         1.556472
 C         3.586375         2.168792         0.318254
 O         2.338090         2.517257        -0.504050
 C         2.085520         1.290793        -1.175090
 C         2.981440         0.110859        -0.756898
 H        -0.005277        -1.334502         0.015667
 H        -0.687926         0.318115        -0.341627
 H        -0.070416        -0.607484        -1.625141
 H         1.395753         1.682924         1.211093
 H         1.606165         0.037365         1.878844
 H         3.968130        -0.169110         2.255030
 H         3.584609         3.004784         1.013145
 H         4.500486         2.468368        -0.339124
 H         1.840319         1.224023        -2.219522
 H         3.638801        -0.445456        -1.433237
