19
Iteration:  3615charge 0 multiplicity 1
 C         0.272102        -0.567651        -0.505180
 C         1.413523         0.297774        -0.315187
 C         1.742467         0.585687         1.191596
 C         3.176704         0.778433         0.667264
 O         4.358578         0.329630         1.359400
 C         3.426291         2.232781         0.446101
 O         2.646581         2.559565        -0.720003
 C         2.111950         1.331055        -1.189950
 C         2.855933         0.165825        -0.650412
 H         0.313675        -1.440292         0.114277
 H        -0.762349        -0.047732        -0.415709
 H         0.170993        -0.894256        -1.538504
 H         1.058787         1.257524         1.789178
 H         1.654103        -0.403781         1.655604
 H         4.321457        -0.647816         1.125313
 H         3.228254         3.029439         1.178379
 H         4.549952         2.273273         0.338410
 H         1.538844         1.525859        -2.086726
 H         3.243576        -0.671527        -1.188473
