19
Iteration:   892
 C         0.206175        -0.518954        -0.259568
 C         1.293905         0.480509        -0.137232
 C         1.811513         0.719458         1.206189
 C         3.243632         0.767261         0.631327
 O         4.254194         0.171233         1.386198
 C         3.627330         2.235436         0.202365
 O         2.803039         2.482513        -0.974148
 C         2.052691         1.265095        -1.185400
 C         2.659438         0.043747        -0.620386
 H         0.356073        -1.435432         0.373934
 H        -0.849142        -0.074720        -0.017950
 H         0.082369        -0.796305        -1.298575
 H         1.458775         1.532111         1.936908
 H         1.567690        -0.259258         1.692675
 H         4.447276         0.886473         1.977980
 H         3.336565         2.945548         1.015563
 H         4.602395         2.452035        -0.208858
 H         1.627665         1.294074        -2.183666
 H         3.103703        -0.836080        -1.008065
