19
Iteration:  3553charge 0 multiplicity 1
 C         0.187903        -0.482383        -0.702380
 C         1.458711         0.206250        -0.167990
 C         1.786833         0.556112         1.228691
 C         3.336388         0.751427         0.624254
 O         4.257070         0.321287         1.406843
 C         3.594856         2.239749         0.189706
 O         2.395582         2.572363        -0.522867
 C         2.051453         1.288987        -1.135192
 C         2.960289         0.183122        -0.679102
 H         0.099354        -1.650359        -0.629846
 H        -0.541216         0.055702        -0.176983
 H         0.299489        -0.333850        -1.745457
 H         1.353677         1.389415         1.737891
 H         1.825670        -0.333822         1.862154
 H         4.021953        -0.063718         2.310978
 H         3.758851         3.056144         0.982352
 H         4.446459         2.084372        -0.452439
 H         1.645329         1.215968        -2.172342
 H         3.505310        -0.548974        -1.215941
