19
Iteration:  4953
 C         0.328124        -0.572602        -0.652023
 C         1.432189         0.301558        -0.212076
 C         1.732322         0.602681         1.322497
 C         3.160178         0.818492         0.667274
 O         4.252133         0.188887         1.288218
 C         3.481506         2.365052         0.407420
 O         2.626061         2.563456        -0.761293
 C         2.067780         1.318058        -1.137674
 C         2.901143         0.174402        -0.656493
 H         0.461298        -1.480346        -0.155928
 H        -0.631207        -0.171824        -0.217007
 H         0.366874        -0.756361        -1.766435
 H         1.084930         1.356760         1.814282
 H         1.816643        -0.420109         1.772525
 H         3.810221        -0.384234         1.995687
 H         3.540302         3.042552         1.282676
 H         4.546316         2.157494         0.167660
 H         1.656794         1.307999        -2.153397
 H         3.437947        -0.688366        -1.111377
