19
Iteration:   409
 C        -0.058684        -0.218373        -0.331567
 C         1.313120         0.343638        -0.052364
 C         1.856351         0.911253         1.243555
 C         3.383042         0.866142         0.657215
 O         4.365671         0.185432         1.504966
 C         3.687782         2.186765        -0.072427
 O         2.552875         2.387220        -0.870740
 C         2.074114         1.050595        -1.179332
 C         2.821756        -0.070947        -0.535531
 H        -0.332763        -1.026646         0.404713
 H        -0.871126         0.661846        -0.277377
 H        -0.146799        -0.700086        -1.360313
 H         1.463626         1.966173         1.351182
 H         1.809423         0.263803         2.157921
 H         4.826402        -0.486417         1.002808
 H         3.642724         3.036756         0.671828
 H         4.654434         2.390850        -0.611722
 H         1.490369         0.898218        -2.165638
 H         3.220273        -0.920682        -1.136229
