19
Iteration:   575
 C         0.051447        -0.354066        -0.292971
 C         1.280796         0.492872        -0.064633
 C         1.853933         0.756707         1.313823
 C         3.261014         0.717487         0.655443
 O         4.408630         0.282216         1.412062
 C         3.544880         2.102218         0.114607
 O         2.768431         2.427404        -1.020450
 C         2.065763         1.187834        -1.223255
 C         2.723710         0.035354        -0.652595
 H        -0.162621        -0.901498         0.662828
 H        -0.920421         0.206533        -0.577206
 H         0.039263        -1.198571        -0.972818
 H         1.616855         1.725056         1.696086
 H         1.706594        -0.054019         2.046436
 H         4.069330         0.586007         2.315837
 H         3.658114         2.911791         0.854989
 H         4.553442         2.047203        -0.302673
 H         1.576743         1.036779        -2.111156
 H         3.042189        -0.892535        -1.164352
