19
Iteration:  1102
 C         0.139615        -0.395046        -0.542948
 C         1.420421         0.278848        -0.206940
 C         1.863987         0.650165         1.218279
 C         3.287285         0.810237         0.689239
 O         4.310332         0.231932         1.630098
 C         3.676936         2.103425        -0.021671
 O         2.503920         2.485111        -0.649130
 C         1.887039         1.311944        -1.191622
 C         2.863422         0.107705        -0.663226
 H         0.154884        -1.478189        -0.141129
 H        -0.839383         0.234002        -0.280513
 H        -0.009576        -0.546221        -1.649191
 H         1.484111         1.579070         1.580788
 H         1.811002        -0.054810         2.066468
 H         4.822464         1.132531         1.747584
 H         4.117648         2.861826         0.678304
 H         4.483435         1.783288        -0.775745
 H         1.311755         1.329183        -2.161258
 H         3.346191        -0.644203        -1.188450
