19
Iteration:  1169charge 0 multiplicity 1
 C         0.183606        -0.444287        -0.400878
 C         1.356393         0.322727        -0.199321
 C         1.758659         0.717548         1.311997
 C         3.237362         0.774265         0.736340
 O         4.388993         0.101263         1.236673
 C         3.399186         2.289536         0.325207
 O         2.646434         2.559173        -0.891960
 C         2.082187         1.196271        -1.252771
 C         2.931054         0.133726        -0.573793
 H         0.048296        -1.238086         0.439652
 H        -0.840115         0.158212        -0.408309
 H         0.145038        -0.905931        -1.483084
 H         1.306257         1.667878         1.541785
 H         1.512513         0.114332         2.210191
 H         4.194233        -0.364789         2.033643
 H         2.960664         3.079622         0.968346
 H         4.548714         2.508576         0.166197
 H         1.966526         1.166849        -2.321500
 H         3.596753        -0.551486        -1.102746
