19
Iteration:   386charge 0 multiplicity 1
 C         0.041055        -0.211652        -0.340325
 C         1.356870         0.299835        -0.072978
 C         1.873903         0.899511         1.267107
 C         3.284286         0.793277         0.682399
 O         4.331346         0.285155         1.470654
 C         3.685102         1.985621        -0.040026
 O         2.556595         2.417998        -0.812319
 C         1.954802         1.142816        -1.222635
 C         2.784776        -0.034766        -0.554818
 H        -0.347384        -0.960195         0.417512
 H        -0.629010         0.806355        -0.349576
 H        -0.089079        -0.699620        -1.383418
 H         1.715974         2.003613         1.438093
 H         1.746498         0.229966         2.136558
 H         5.218998         0.568933         1.093487
 H         4.199064         2.895404         0.360442
 H         4.500171         1.620728        -0.775263
 H         1.762888         0.824897        -2.248243
 H         3.316395        -0.960875        -0.906123
