19
Iteration:  4026
 C         0.183534        -0.496235        -0.745545
 C         1.302921         0.363151        -0.192679
 C         1.812066         0.505519         1.253692
 C         3.359561         0.805707         0.687045
 O         4.399626         0.236090         1.466131
 C         3.533349         2.387291         0.337787
 O         2.513984         2.553627        -0.813393
 C         2.043252         1.258414        -1.125128
 C         2.835153         0.130767        -0.547367
 H         0.168730        -1.526924        -0.276699
 H        -0.776205        -0.029631        -0.663572
 H         0.403841        -0.650707        -1.850168
 H         1.306169         1.141293         2.024029
 H         1.887696        -0.523531         1.706059
 H         4.023184        -0.579439         1.888392
 H         3.426600         3.188627         1.119673
 H         4.512646         2.374794        -0.120021
 H         1.719858         1.283916        -2.159167
 H         3.253489        -0.676201        -1.189464
