19
Iteration:   503charge 0 multiplicity 1
 C         0.074115        -0.297179        -0.338454
 C         1.338678         0.353077        -0.046686
 C         1.900676         0.961525         1.273767
 C         3.357474         0.808010         0.658590
 O         4.265080         0.140217         1.526377
 C         3.686757         2.181400        -0.029759
 O         2.548345         2.379600        -0.929717
 C         2.031168         1.093548        -1.208268
 C         2.767907        -0.014835        -0.574253
 H        -0.074239        -1.349649        -0.080197
 H        -0.686073         0.264545         0.120009
 H        -0.217335        -0.272799        -1.404725
 H         1.511584         2.006481         1.444476
 H         1.733424         0.263034         2.112969
 H         5.242465         0.357819         1.527273
 H         3.718248         3.139514         0.547995
 H         4.765506         2.146045        -0.539803
 H         1.462312         1.166756        -2.112094
 H         3.024430        -0.995540        -1.046626
