19
Iteration:  3580
 C         0.098701        -0.554302        -0.608022
 C         1.425552         0.262283        -0.304549
 C         1.868256         0.666562         1.064444
 C         3.442419         0.799171         0.716911
 O         4.365282         0.186320         1.559635
 C         3.494574         2.322532         0.327765
 O         2.407825         2.563257        -0.634503
 C         2.027223         1.312704        -1.209938
 C         2.931326         0.167621        -0.694439
 H         0.192920        -1.504791        -0.188045
 H        -0.665696         0.006358         0.019387
 H        -0.073526        -0.669861        -1.715470
 H         1.304730         1.510717         1.608269
 H         1.902493        -0.293334         1.681266
 H         4.077742        -0.742125         1.824474
 H         3.274919         2.950851         1.146000
 H         4.456330         2.420337        -0.213219
 H         1.618399         1.283875        -2.195813
 H         3.467694        -0.584325        -1.335520
