19
Iteration:  1433charge 0 multiplicity 1
 C         0.159953        -0.483360        -0.501862
 C         1.319223         0.323964        -0.236545
 C         1.835301         0.593216         1.133949
 C         3.318747         0.735685         0.638067
 O         4.231917         0.294827         1.539652
 C         3.504513         2.255860         0.286088
 O         2.649060         2.584600        -0.751544
 C         2.069282         1.277998        -1.135995
 C         2.824307         0.033610        -0.699961
 H         0.308238        -1.511969        -0.124772
 H        -0.702274        -0.082783        -0.000333
 H         0.005908        -0.590321        -1.628269
 H         1.431640         1.379500         1.856907
 H         1.882085        -0.386448         1.736882
 H         5.104942         0.287516         1.025685
 H         3.349409         2.847467         1.195061
 H         4.535344         2.489183        -0.068324
 H         1.744585         1.462536        -2.195257
 H         3.243040        -0.723072        -1.273951
