19
Iteration:  4676
 C         0.175811        -0.462707        -0.761610
 C         1.356366         0.316237        -0.199165
 C         1.907380         0.532917         1.231212
 C         3.327346         0.702464         0.651734
 O         4.399501         0.295032         1.557886
 C         3.452489         2.298697         0.331985
 O         2.555666         2.586821        -0.771049
 C         1.987898         1.279957        -1.093548
 C         2.851750         0.153031        -0.650777
 H        -0.010418        -1.446753        -0.308437
 H        -0.801334         0.179229        -0.913671
 H         0.435951        -0.700790        -1.823594
 H         1.517003         1.342469         1.813643
 H         1.676831        -0.511839         1.623274
 H         4.293696        -0.642936         1.678723
 H         3.244566         2.703121         1.309588
 H         4.441603         2.691160         0.157460
 H         1.522060         1.311403        -2.080043
 H         3.075055        -0.788437        -1.224028
