19
Iteration:  3292
 C         0.257382        -0.432917        -0.705587
 C         1.378414         0.261306        -0.215790
 C         1.878821         0.524350         1.237619
 C         3.274386         0.779738         0.755015
 O         4.442311         0.274735         1.419152
 C         3.508220         2.190732         0.212063
 O         2.458870         2.565818        -0.638857
 C         1.980048         1.300086        -1.115415
 C         2.779518         0.134892        -0.685777
 H         0.032364        -1.461936        -0.242444
 H        -0.612568         0.221909        -0.623196
 H         0.336863        -0.587301        -1.826350
 H         1.262954         1.278083         1.752311
 H         1.856305        -0.376222         1.951362
 H         4.230957         0.451404         2.324846
 H         3.565313         3.014221         1.055189
 H         4.523178         2.240468        -0.311048
 H         1.645341         1.332225        -2.156858
 H         3.438071        -0.576978        -1.256931
