19
Iteration:  3437
 C         0.190239        -0.553860        -0.667903
 C         1.381193         0.300446        -0.231060
 C         1.807109         0.621166         1.161881
 C         3.349006         0.790434         0.679503
 O         4.402903         0.230071         1.420303
 C         3.541457         2.249786         0.329336
 O         2.421224         2.552365        -0.524580
 C         2.080450         1.327453        -1.200844
 C         2.850404         0.111848        -0.746694
 H         0.209107        -1.550813        -0.328707
 H        -0.767979        -0.126925        -0.287280
 H         0.234217        -0.762392        -1.769688
 H         1.312684         1.442345         1.686933
 H         1.885911        -0.287516         1.798321
 H         4.050011         0.493831         2.332634
 H         3.332676         2.912829         1.135407
 H         4.452807         2.483489        -0.237205
 H         1.784276         1.440597        -2.272553
 H         3.303340        -0.648626        -1.341584
