19
Iteration:  1166charge 0 multiplicity 1
 C         0.164701        -0.464727        -0.411948
 C         1.384272         0.334977        -0.203645
 C         1.750354         0.718797         1.326777
 C         3.227700         0.780253         0.738800
 O         4.405800         0.126325         1.245883
 C         3.406328         2.264270         0.314382
 O         2.650678         2.547390        -0.869450
 C         2.074596         1.182978        -1.262886
 C         2.947061         0.155332        -0.575240
 H        -0.038777        -1.141770         0.435832
 H        -0.858968         0.104919        -0.354434
 H         0.236987        -0.842372        -1.394940
 H         1.377892         1.749488         1.443538
 H         1.465562         0.091599         2.202967
 H         4.006926        -0.523061         1.927339
 H         3.001176         3.058057         1.007417
 H         4.493033         2.490192         0.113912
 H         1.918885         1.122705        -2.380275
 H         3.423775        -0.471965        -1.215923
