19
Iteration:  3020charge 0 multiplicity 1
 C         0.201152        -0.525088        -0.663537
 C         1.375399         0.358982        -0.150880
 C         1.838397         0.681803         1.309223
 C         3.274059         0.842022         0.669728
 O         4.379149         0.147738         1.367184
 C         3.548594         2.321408         0.255655
 O         2.503513         2.548824        -0.774756
 C         2.055956         1.257783        -1.121508
 C         2.804486         0.079255        -0.588659
 H         0.433488        -1.537665        -0.370410
 H        -0.853896        -0.313485        -0.219233
 H         0.214506        -0.532649        -1.818429
 H         1.343488         1.623812         1.690564
 H         1.790242        -0.274770         1.962933
 H         4.072834        -0.215075         2.250017
 H         3.329356         3.107244         0.987328
 H         4.572937         2.379949        -0.224501
 H         1.763375         1.116412        -2.158281
 H         3.414808        -0.606352        -1.166653
