19
Iteration:  4381
 C         0.307467        -0.595919        -0.619566
 C         1.381354         0.297700        -0.287641
 C         1.820270         0.590101         1.225309
 C         3.286370         0.775398         0.660909
 O         4.255376         0.198994         1.479493
 C         3.455871         2.251486         0.367091
 O         2.567032         2.666390        -0.710188
 C         2.028937         1.313155        -1.133393
 C         2.881398         0.189214        -0.712857
 H         0.480201        -1.458076        -0.047555
 H        -0.699088        -0.173277        -0.250003
 H         0.196818        -0.805749        -1.670909
 H         1.476351         1.491616         1.648440
 H         1.792473        -0.186497         2.011420
 H         4.194048        -0.775655         1.268530
 H         3.207591         2.871118         1.233648
 H         4.492682         2.493669         0.016871
 H         1.779394         1.481879        -2.193015
 H         3.358971        -0.547382        -1.387305
