19
Iteration:  3679charge 0 multiplicity 1
 C         0.230539        -0.423080        -0.694560
 C         1.473639         0.262012        -0.221397
 C         1.781377         0.592575         1.189044
 C         3.241531         0.795253         0.681449
 O         4.422521         0.319244         1.500586
 C         3.525830         2.227195         0.252115
 O         2.384565         2.475713        -0.596739
 C         2.080738         1.287932        -1.150174
 C         2.903522         0.080033        -0.719749
 H         0.049413        -1.330107        -0.164302
 H        -0.671642         0.291013        -0.544050
 H         0.269409        -0.479873        -1.809199
 H         1.349593         1.592408         1.603692
 H         1.674423        -0.259739         1.930501
 H         4.005415        -0.263278         2.129039
 H         3.514924         2.776001         1.155374
 H         4.456519         2.374446        -0.265430
 H         1.603646         1.341615        -2.129644
 H         3.371175        -0.542279        -1.467721
