19
Iteration:  4975
 C         0.177515        -0.587601        -0.573121
 C         1.378015         0.310001        -0.358752
 C         1.759184         0.648563         1.122462
 C         3.308184         0.749046         0.759979
 O         4.379596         0.191129         1.488111
 C         3.516393         2.252959         0.260995
 O         2.455696         2.594142        -0.604185
 C         2.145518         1.362956        -1.249823
 C         2.877709         0.179727        -0.669934
 H         0.299866        -1.517834        -0.122594
 H        -0.809037        -0.208685        -0.210049
 H         0.265214        -0.749917        -1.677253
 H         1.330871         1.500245         1.688476
 H         1.510707        -0.328834         1.646411
 H         4.043497        -0.254034         2.249797
 H         3.382401         2.912148         1.148779
 H         4.591394         2.299395        -0.016655
 H         1.799279         1.350689        -2.292180
 H         3.650596        -0.466142        -1.124942
