19
Iteration:  3924
 C         0.266071        -0.597615        -0.720589
 C         1.384066         0.270999        -0.128879
 C         1.719564         0.556374         1.308146
 C         3.198764         0.863497         0.796647
 O         4.399786         0.245327         1.402477
 C         3.482137         2.348536         0.343362
 O         2.704069         2.516090        -0.864793
 C         2.030107         1.387165        -1.099901
 C         2.751485         0.159994        -0.692631
 H         0.211758        -1.682667        -0.399679
 H        -0.732552        -0.185741        -0.497406
 H         0.445330        -0.684092        -1.796025
 H         1.159657         1.436802         1.751804
 H         1.724672        -0.277561         1.990274
 H         4.421554        -0.727061         1.400838
 H         3.155250         3.129593         1.055197
 H         4.563226         2.392079         0.264925
 H         1.570226         1.393545        -2.094325
 H         3.218851        -0.752658        -1.018797
