19
Iteration:  4553
 C         0.156325        -0.474012        -0.849569
 C         1.404253         0.272305        -0.237398
 C         1.758140         0.564907         1.252556
 C         3.310667         0.886947         0.821121
 O         4.424772         0.288640         1.481673
 C         3.610237         2.213357         0.209923
 O         2.450848         2.588627        -0.572989
 C         1.997454         1.257319        -1.189718
 C         2.831218         0.126127        -0.640002
 H         0.230584        -1.543300        -0.369468
 H        -0.875560        -0.205969        -0.498942
 H         0.351295        -0.713091        -1.867618
 H         1.363671         1.333135         1.926337
 H         1.932760        -0.441811         1.721121
 H         4.041466        -0.478809         1.900230
 H         3.753167         3.007730         0.981869
 H         4.547542         2.142526        -0.382445
 H         1.814180         1.432137        -2.286137
 H         3.388343        -0.637158        -1.123131
