19
Iteration:  3720charge 0 multiplicity 1
 C         0.123272        -0.542456        -0.526598
 C         1.366702         0.247925        -0.357933
 C         1.762389         0.593926         1.104289
 C         3.359821         0.840513         0.682008
 O         4.273177         0.320720         1.550204
 C         3.577052         2.285495         0.309724
 O         2.510286         2.527743        -0.591214
 C         2.142484         1.276801        -1.173552
 C         2.924094         0.133845        -0.758895
 H         0.057974        -1.526000         0.028871
 H        -0.672567         0.057716        -0.092025
 H        -0.166621        -0.773179        -1.598539
 H         1.096979         1.237389         1.625408
 H         1.749432        -0.421395         1.541308
 H         4.337823        -0.685843         1.552390
 H         3.326269         3.091589         1.047268
 H         4.546412         2.496995        -0.240625
 H         1.889145         1.459370        -2.199497
 H         3.610947        -0.454127        -1.414197
