19
Iteration:  1352
 C         0.171413        -0.504176        -0.590892
 C         1.331567         0.359273        -0.195667
 C         1.851391         0.596258         1.259404
 C         3.302806         0.789763         0.691656
 O         4.365707         0.348525         1.421698
 C         3.577201         2.172871         0.285998
 O         2.592227         2.501212        -0.787901
 C         1.986256         1.264564        -1.129042
 C         2.813798         0.136751        -0.699897
 H         0.040176        -1.271501         0.186559
 H        -0.789445         0.127313        -0.630075
 H         0.286924        -0.934905        -1.555945
 H         1.337499         1.509503         1.788571
 H         1.656382        -0.364493         1.899505
 H         4.096687        -0.439393         2.003793
 H         3.410949         2.888424         1.137716
 H         4.628776         2.318998        -0.100683
 H         1.487801         1.416119        -2.073605
 H         3.488596        -0.540590        -1.325020
