19
Iteration:  3191charge 0 multiplicity 1
 C         0.152469        -0.635717        -0.445227
 C         1.339661         0.313826        -0.252782
 C         1.797314         0.540214         1.167597
 C         3.263319         0.789496         0.628536
 O         4.322918         0.095154         1.368494
 C         3.494906         2.353763         0.367005
 O         2.693365         2.611784        -0.774165
 C         2.044534         1.367590        -1.179216
 C         2.844985         0.216936        -0.674801
 H         0.513694        -1.572386         0.229527
 H        -0.853504        -0.372416        -0.137008
 H         0.135935        -0.998681        -1.464508
 H         1.246572         1.354124         1.747018
 H         1.808847        -0.387707         1.763142
 H         4.238393         0.765017         2.068511
 H         3.215946         3.121967         1.138099
 H         4.620901         2.563280         0.139329
 H         1.595362         1.497640        -2.160212
 H         3.354749        -0.553328        -1.242101
