19
Iteration:  4698
 C         0.200899        -0.367332        -0.744507
 C         1.427488         0.275757        -0.287889
 C         1.828015         0.554845         1.237705
 C         3.240461         0.770090         0.760353
 O         4.444565         0.410272         1.520331
 C         3.529434         2.172814         0.348470
 O         2.417195         2.473909        -0.577931
 C         2.106675         1.279362        -1.230167
 C         2.793958         0.088399        -0.770519
 H        -0.006102        -1.294018        -0.180761
 H        -0.749281         0.317111        -0.615357
 H         0.201163        -0.690632        -1.818875
 H         1.444831         1.416424         1.749207
 H         1.739132        -0.442584         1.809800
 H         4.214927        -0.533443         1.773759
 H         3.666894         2.902990         1.137652
 H         4.496848         2.185864        -0.161295
 H         1.577991         1.350434        -2.197542
 H         3.482320        -0.556437        -1.392843
