19
Iteration:  1693
 C         0.077459        -0.511951        -0.569987
 C         1.418561         0.253923        -0.326503
 C         1.894489         0.672304         1.129052
 C         3.299609         0.759797         0.637900
 O         4.325531         0.216344         1.660867
 C         3.622925         2.210004         0.179317
 O         2.423013         2.484163        -0.548535
 C         2.048966         1.307231        -1.190409
 C         2.856326         0.155537        -0.763540
 H        -0.034736        -1.352332         0.153888
 H        -0.762401         0.262856        -0.280930
 H         0.005746        -0.923238        -1.645271
 H         1.623117         1.685657         1.613110
 H         1.689619        -0.135529         1.898942
 H         4.998541         0.870834         1.650751
 H         3.767394         3.077009         0.917386
 H         4.367805         2.223639        -0.649301
 H         1.736362         1.461599        -2.196195
 H         3.385208        -0.468066        -1.462915
