19
Iteration:  2778charge 0 multiplicity 1
 C         0.268242        -0.546418        -0.603204
 C         1.265193         0.462915        -0.124723
 C         1.811889         0.588873         1.321524
 C         3.263202         0.774692         0.735824
 O         4.444090         0.299610         1.419635
 C         3.531816         2.220101         0.295222
 O         2.633572         2.550488        -0.865868
 C         2.033969         1.291882        -1.210776
 C         2.690005         0.090171        -0.635390
 H         0.269985        -1.480816        -0.038633
 H        -0.811221        -0.036709        -0.485335
 H         0.355009        -0.835842        -1.683038
 H         1.421532         1.391662         1.960516
 H         1.739511        -0.304112         1.941860
 H         4.452210        -0.635011         1.270002
 H         3.351888         2.883704         1.170804
 H         4.555311         2.492347        -0.015439
 H         1.523172         1.209397        -2.191728
 H         2.913558        -0.778183        -1.197708
