19
Iteration:  4948charge 0 multiplicity 1
 C         0.320959        -0.565204        -0.656309
 C         1.417565         0.299505        -0.185808
 C         1.736479         0.610417         1.312226
 C         3.198950         0.843954         0.680709
 O         4.228408         0.187205         1.281499
 C         3.482649         2.349270         0.386539
 O         2.673486         2.559444        -0.765364
 C         2.052846         1.302759        -1.116751
 C         2.871429         0.167981        -0.680151
 H         0.458980        -1.646046        -0.225970
 H        -0.710159        -0.313161        -0.389327
 H         0.492096        -0.657345        -1.719231
 H         1.176158         1.255360         2.013979
 H         1.752438        -0.379502         1.808521
 H         3.863701        -0.383399         1.918850
 H         3.244506         3.050164         1.218114
 H         4.597845         2.338360         0.237898
 H         1.505202         1.335975        -2.055962
 H         3.599653        -0.558880        -1.025145
