19
Iteration:  3477charge 0 multiplicity 1
 C         0.248531        -0.521577        -0.482132
 C         1.500638         0.223642        -0.237223
 C         1.736993         0.545246         1.214353
 C         3.218347         0.866939         0.656374
 O         4.257759         0.064528         1.279901
 C         3.390850         2.355612         0.426562
 O         2.507434         2.564869        -0.717719
 C         2.152673         1.308336        -1.189237
 C         2.990668         0.263853        -0.746551
 H         0.147752        -1.405633         0.318802
 H        -0.521453         0.197221        -0.482923
 H         0.354437        -0.914932        -1.519610
 H         0.975478         1.221671         1.709734
 H         1.783008        -0.423104         1.881829
 H         4.714026         0.406432         2.024135
 H         3.119115         2.942782         1.349223
 H         4.511206         2.672455         0.318445
 H         1.701831         1.383900        -2.163232
 H         3.484294        -0.575704        -1.214145
