19
Iteration:  2980charge 0 multiplicity 1
 C         0.106745        -0.456717        -0.546317
 C         1.349280         0.218978        -0.289867
 C         1.859453         0.578665         1.135285
 C         3.319548         0.758780         0.639989
 O         4.283021         0.450652         1.525553
 C         3.673882         2.172746         0.174177
 O         2.469321         2.493067        -0.541183
 C         2.131368         1.323735        -1.149210
 C         2.827658         0.065220        -0.777465
 H         0.109785        -1.376492         0.087117
 H        -0.780364        -0.057106        -0.129330
 H        -0.019920        -0.638034        -1.621648
 H         1.400556         1.435237         1.658680
 H         1.890344        -0.094489         1.941031
 H         4.115730        -0.336771         2.026607
 H         3.808538         2.831429         1.016533
 H         4.539107         2.130805        -0.494451
 H         1.599730         1.542464        -2.066054
 H         3.461843        -0.385504        -1.469356
