19
Iteration:  1830
 C         0.098441        -0.367052        -0.561547
 C         1.397619         0.219798        -0.236695
 C         1.848749         0.728809         1.146779
 C         3.336663         0.793607         0.671197
 O         4.411120         0.286378         1.492624
 C         3.545924         2.286236         0.173884
 O         2.336996         2.457248        -0.533159
 C         2.120861         1.149810        -1.246314
 C         2.985562         0.072099        -0.656965
 H        -0.325485        -1.301792        -0.026747
 H        -0.713289         0.356354        -0.264693
 H        -0.078122        -0.508390        -1.705195
 H         1.485422         1.691282         1.466740
 H         1.749127         0.088703         2.019867
 H         4.112468        -0.675571         1.644208
 H         3.575505         2.989999         1.034976
 H         4.440706         2.235002        -0.530824
 H         1.590709         1.178380        -2.204150
 H         3.570275        -0.470472        -1.325979
