19
Iteration:  1377charge 0 multiplicity 1
 C         0.138975        -0.374214        -0.691127
 C         1.406392         0.222708        -0.198793
 C         1.896745         0.679895         1.219867
 C         3.394723         0.806191         0.669119
 O         4.359421         0.208033         1.433606
 C         3.576348         2.286228         0.188226
 O         2.335212         2.520676        -0.627242
 C         2.099549         1.171881        -1.176643
 C         2.840668         0.019006        -0.593482
 H        -0.107340        -1.307197        -0.183418
 H        -0.581416         0.404886        -0.396180
 H        -0.009433        -0.395875        -1.789235
 H         1.477911         1.666279         1.629009
 H         1.904025        -0.110664         2.096197
 H         4.225758         0.387098         2.397789
 H         3.601932         3.017854         1.005135
 H         4.387815         2.500410        -0.486064
 H         1.736592         1.327034        -2.185547
 H         3.387102        -0.816204        -1.060529
