19
Iteration:  3767
 C         0.299331        -0.572993        -0.727816
 C         1.266440         0.347567        -0.217793
 C         1.751734         0.584800         1.270566
 C         3.275245         0.849310         0.793382
 O         4.387950         0.202776         1.389877
 C         3.492964         2.453365         0.358630
 O         2.654247         2.518855        -0.779563
 C         2.009388         1.244468        -1.156574
 C         2.765729         0.141634        -0.571676
 H         0.407081        -1.582018        -0.391195
 H        -0.878210        -0.355200        -0.550944
 H         0.487113        -0.647280        -1.830870
 H         1.564435         1.583360         1.845380
 H         1.743009        -0.278183         1.986948
 H         4.266396        -0.709505         1.169580
 H         3.200327         2.958513         1.249572
 H         4.532550         2.570993         0.014459
 H         1.811096         1.113705        -2.253795
 H         3.241620        -0.686065        -1.050821
