19
Iteration:   531
 C         0.001079        -0.262725        -0.319000
 C         1.354667         0.272574        -0.098647
 C         1.892142         0.955933         1.199277
 C         3.328179         0.786783         0.645025
 O         4.259558         0.266999         1.509392
 C         3.749348         2.113129        -0.054910
 O         2.455688         2.434461        -0.813156
 C         2.068615         1.071447        -1.161518
 C         2.908000        -0.029762        -0.553609
 H        -0.318914        -1.170527         0.276112
 H        -0.718865         0.627185        -0.196575
 H        -0.152924        -0.436181        -1.389623
 H         1.503413         1.947258         1.391295
 H         1.670487         0.317117         2.066183
 H         4.673920        -0.595347         1.235590
 H         3.974662         2.999482         0.529741
 H         4.568408         1.952169        -0.648903
 H         1.677668         1.051976        -2.156071
 H         3.430018        -0.727152        -1.185831
