19
Iteration:  3741
 C         0.297523        -0.518407        -0.578704
 C         1.421728         0.329339        -0.262089
 C         1.834891         0.578890         1.207180
 C         3.263870         0.769342         0.736451
 O         4.252428         0.264778         1.529484
 C         3.463731         2.190396         0.347438
 O         2.531394         2.605455        -0.789839
 C         2.055270         1.350567        -1.189227
 C         2.866469         0.152640        -0.736391
 H         0.310768        -1.574866        -0.162999
 H        -0.564894        -0.079276        -0.192999
 H         0.214234        -0.724522        -1.680291
 H         1.579060         1.475592         1.653849
 H         1.777106        -0.200448         1.959995
 H         4.352141        -0.612087         1.201693
 H         3.127048         2.715276         1.327197
 H         4.543738         2.366353        -0.013426
 H         1.620655         1.305168        -2.169158
 H         3.433810        -0.733463        -1.118538
