19
Iteration:  4247charge 0 multiplicity 1
 C         0.229752        -0.518847        -0.596946
 C         1.371577         0.281328        -0.255096
 C         1.762112         0.562629         1.135613
 C         3.278639         0.759764         0.625064
 O         4.324931         0.311610         1.441258
 C         3.486720         2.202316         0.385446
 O         2.527137         2.589776        -0.619485
 C         2.105489         1.329322        -1.216919
 C         2.869645         0.208136        -0.683646
 H         0.457520        -1.493498        -0.217864
 H        -0.594801        -0.239181         0.122542
 H        -0.071806        -0.597507        -1.620419
 H         1.317104         1.302451         1.728411
 H         1.694825        -0.435596         1.600547
 H         4.337286        -0.678192         1.619775
 H         3.308495         2.872982         1.255269
 H         4.557035         2.202608         0.090130
 H         2.016837         1.366021        -2.322484
 H         3.474119        -0.521790        -1.191529
