19
Iteration:  1457
 C         0.182386        -0.584773        -0.533565
 C         1.303664         0.382735        -0.223775
 C         1.856118         0.572319         1.313758
 C         3.290154         0.713722         0.731581
 O         4.297665         0.229296         1.580479
 C         3.472935         2.269565         0.339747
 O         2.748543         2.526912        -0.919928
 C         1.964087         1.405194        -1.268598
 C         2.752342         0.233472        -0.726033
 H         0.433072        -1.507364         0.084280
 H        -0.811635        -0.330193        -0.223609
 H         0.350334        -0.965580        -1.608815
 H         1.721731         1.187698         2.214891
 H         1.940059        -0.447221         1.688558
 H         4.879948        -0.318573         0.999579
 H         3.096488         3.051798         0.992773
 H         4.481484         2.542814         0.138544
 H         1.542581         1.576408        -2.284447
 H         3.144180        -0.703994        -1.233322
