19
Iteration:  2293charge 0 multiplicity 1
 C         0.142607        -0.483518        -0.523476
 C         1.426520         0.212488        -0.210911
 C         1.872181         0.613911         1.198547
 C         3.310548         0.845626         0.703079
 O         4.436974         0.206532         1.426042
 C         3.517868         2.264777         0.287127
 O         2.500578         2.569632        -0.734294
 C         2.008108         1.287426        -1.180256
 C         2.824706         0.140707        -0.668381
 H         0.045773        -1.491279         0.017917
 H        -0.837149         0.046639        -0.223663
 H         0.063958        -0.538239        -1.569740
 H         1.363204         1.590633         1.396744
 H         1.703228        -0.284155         1.778792
 H         4.069251        -0.455035         1.982718
 H         3.432081         2.927492         1.101558
 H         4.413543         2.478711        -0.194774
 H         1.565086         1.197632        -2.142508
 H         3.337320        -0.382869        -1.547483
