19
Iteration:  3401charge 0 multiplicity 1
 C         0.186351        -0.570611        -0.808288
 C         1.370504         0.218374        -0.192809
 C         1.846766         0.561115         1.292995
 C         3.324650         0.844524         0.714428
 O         4.407352         0.299380         1.486948
 C         3.573359         2.237451         0.179132
 O         2.454914         2.606727        -0.585407
 C         2.020491         1.302601        -1.097746
 C         2.802865         0.184180        -0.664956
 H         0.347571        -1.662907        -0.568352
 H        -0.772112        -0.264813        -0.547420
 H         0.217251        -0.266409        -1.846514
 H         1.111708         1.292951         1.713524
 H         1.697473        -0.380253         1.945381
 H         4.025815        -0.499062         1.957858
 H         3.940089         2.876572         0.917368
 H         4.434346         2.221634        -0.595242
 H         1.709879         1.367833        -2.117161
 H         3.371841        -0.421944        -1.409682
