19
Iteration:  3356charge 0 multiplicity 1
 C         0.249655        -0.559768        -0.516511
 C         1.438681         0.283470        -0.241267
 C         1.755715         0.626141         1.194263
 C         3.211025         0.741200         0.650598
 O         4.302380         0.180977         1.425895
 C         3.428974         2.254816         0.421706
 O         2.519071         2.629415        -0.662508
 C         2.117812         1.305570        -1.285782
 C         2.907315         0.143382        -0.737720
 H         0.418859        -1.429777         0.192359
 H        -0.605691        -0.040019        -0.201393
 H         0.114105        -0.721478        -1.543807
 H         1.472216         1.590698         1.704163
 H         1.698598        -0.165337         2.001877
 H         5.006100        -0.100095         0.804690
 H         3.077446         2.886917         1.177976
 H         4.447498         2.630620         0.339118
 H         1.631687         1.379553        -2.261824
 H         3.659295        -0.452871        -1.315566
