19
Iteration:   403charge 0 multiplicity 1
 C        -0.033420        -0.195747        -0.346077
 C         1.340705         0.298004        -0.063945
 C         1.861003         0.932621         1.234471
 C         3.340065         0.807367         0.690580
 O         4.368019         0.203603         1.496905
 C         3.704657         2.149154        -0.080986
 O         2.515659         2.399319        -0.882697
 C         2.072683         1.071877        -1.139076
 C         2.830402        -0.045298        -0.509283
 H        -0.430145        -0.916218         0.356022
 H        -0.690132         0.584293        -0.222325
 H        -0.082718        -0.689392        -1.283831
 H         1.439387         1.932572         1.244475
 H         1.633897         0.272005         2.070628
 H         4.970203        -0.287805         0.908554
 H         3.710625         2.947599         0.650249
 H         4.562781         2.080474        -0.807193
 H         1.535714         1.113376        -2.079538
 H         3.200295        -0.824699        -1.151012
