19
Iteration:  3314
 C         0.140242        -0.554227        -0.579832
 C         1.385969         0.345455        -0.235817
 C         1.893194         0.501566         1.231909
 C         3.290303         0.803569         0.674250
 O         4.287534         0.164944         1.408611
 C         3.520041         2.308503         0.347245
 O         2.495332         2.592484        -0.726407
 C         2.067965         1.311772        -1.169947
 C         2.908822         0.156098        -0.733316
 H         0.068773        -1.472203         0.117059
 H        -0.788255         0.017192        -0.575294
 H         0.097667        -0.911905        -1.657669
 H         1.376833         1.150120         1.986420
 H         1.799546        -0.539195         1.731957
 H         4.647702         0.925308         1.976868
 H         3.351473         2.859843         1.379395
 H         4.545130         2.654493         0.079597
 H         1.679985         1.427074        -2.175721
 H         3.593592        -0.620337        -1.262677
