19
Iteration:  2183charge 0 multiplicity 1
 C         0.172982        -0.543872        -0.374652
 C         1.391335         0.345354        -0.298501
 C         1.841720         0.627388         1.180972
 C         3.235423         0.722144         0.730356
 O         4.447494         0.147107         1.346829
 C         3.368111         2.360545         0.442239
 O         2.551762         2.551396        -0.803430
 C         2.103004         1.301261        -1.261082
 C         2.880407         0.188394        -0.743522
 H         0.245688        -1.286071         0.467693
 H        -0.715682         0.122473        -0.073198
 H        -0.067402        -0.907330        -1.327364
 H         1.533633         1.549481         1.757257
 H         1.727197        -0.189163         1.921107
 H         4.045362        -0.725571         1.660769
 H         2.930855         2.962044         1.224449
 H         4.421579         2.485124         0.096879
 H         1.766823         1.370715        -2.342361
 H         3.594279        -0.486931        -1.265943
