19
Iteration:  3891
 C         0.197123        -0.545410        -0.726977
 C         1.302064         0.372708        -0.219217
 C         1.846497         0.681612         1.243020
 C         3.237335         0.755799         0.727656
 O         4.396779         0.332598         1.401866
 C         3.443534         2.256604         0.339295
 O         2.536052         2.494064        -0.711362
 C         2.160667         1.269341        -1.130741
 C         2.861933         0.088772        -0.632111
 H         0.345038        -1.524728        -0.193203
 H        -0.862937        -0.212456        -0.572147
 H         0.221207        -0.655464        -1.807588
 H         1.359438         1.557968         1.783127
 H         1.692310        -0.228073         1.815923
 H         4.300263        -0.583583         1.607598
 H         3.161983         2.899721         1.186415
 H         4.482214         2.419558         0.080643
 H         1.947382         1.491719        -2.172445
 H         3.220465        -0.852953        -1.051777
