19
Iteration:  1506
 C         0.107359        -0.520491        -0.662131
 C         1.424781         0.295772        -0.253535
 C         1.834518         0.777163         1.220101
 C         3.332786         0.813580         0.717381
 O         4.351163         0.158114         1.436619
 C         3.459394         2.250197         0.272978
 O         2.486699         2.520246        -0.651257
 C         2.107248         1.195801        -1.186402
 C         2.863463         0.122498        -0.560350
 H        -0.213015        -1.371958        -0.025313
 H        -0.735138         0.194419        -0.364554
 H         0.195725        -0.849851        -1.668564
 H         1.452467         1.746573         1.452124
 H         1.739803        -0.004057         1.981989
 H         5.002701         0.155322         0.732176
 H         3.321441         3.114698         0.967297
 H         4.523573         2.449649        -0.084858
 H         1.713070         1.246739        -2.220455
 H         3.416219        -0.672321        -0.968837
