19
Iteration:  1406
 C         0.081531        -0.386528        -0.576470
 C         1.372578         0.204399        -0.231711
 C         1.779871         0.680245         1.145174
 C         3.357007         0.825645         0.774045
 O         4.337210         0.161747         1.470534
 C         3.532872         2.221721         0.216168
 O         2.394813         2.470609        -0.627571
 C         2.138411         1.149282        -1.221654
 C         2.961473         0.195020        -0.670952
 H        -0.105471        -1.437249        -0.302562
 H        -0.651561         0.361271        -0.083488
 H        -0.110604        -0.164561        -1.591615
 H         1.254049         1.572375         1.563356
 H         1.742110        -0.006049         2.000426
 H         5.109280         0.799481         1.661940
 H         3.673339         3.091296         0.923097
 H         4.406179         2.214396        -0.538895
 H         1.944788         1.388468        -2.231635
 H         3.712354        -0.546901        -1.162173
