19
Iteration:  3593
 C         0.192015        -0.556434        -0.501149
 C         1.369328         0.321721        -0.333243
 C         1.868925         0.621136         1.156557
 C         3.261995         0.759580         0.612327
 O         4.351750         0.240534         1.519362
 C         3.481274         2.283357         0.382014
 O         2.465823         2.574007        -0.652441
 C         2.099777         1.272709        -1.233683
 C         2.932175         0.156527        -0.737246
 H         0.236586        -1.539224        -0.086171
 H        -0.835869        -0.066129        -0.228612
 H        -0.032839        -0.730024        -1.574822
 H         1.524611         1.572336         1.653714
 H         1.576990        -0.201214         1.802042
 H         4.249066        -0.702430         1.464513
 H         3.217710         2.825386         1.339165
 H         4.491149         2.779274         0.149889
 H         1.987730         1.434342        -2.288010
 H         3.418877        -0.620034        -1.312748
