19
Iteration:  3435charge 0 multiplicity 1
 C         0.194355        -0.541625        -0.683321
 C         1.385453         0.300054        -0.224981
 C         1.814979         0.624592         1.164417
 C         3.341670         0.799067         0.686801
 O         4.402562         0.245790         1.419777
 C         3.540565         2.224076         0.324339
 O         2.429132         2.553439        -0.513898
 C         2.062422         1.317106        -1.210401
 C         2.843479         0.104533        -0.743940
 H         0.286497        -1.599246        -0.312533
 H        -0.694678        -0.119711        -0.306977
 H         0.228994        -0.727670        -1.785858
 H         1.254125         1.443963         1.692319
 H         1.833469        -0.337357         1.822372
 H         4.005013         0.499532         2.268641
 H         3.449935         2.879092         1.172621
 H         4.471687         2.527847        -0.310916
 H         1.693221         1.455997        -2.231225
 H         3.350490        -0.660159        -1.318653
