19
Iteration:   639charge 0 multiplicity 1
 C         0.044136        -0.275024        -0.359407
 C         1.359202         0.313007        -0.130176
 C         1.841978         0.867723         1.267884
 C         3.252406         0.809389         0.696019
 O         4.374683         0.261132         1.480097
 C         3.583656         2.163194         0.115405
 O         2.585394         2.429285        -0.930839
 C         2.093481         1.085272        -1.229012
 C         2.796589        -0.018196        -0.567136
 H        -0.086610        -1.145866         0.255530
 H        -0.627462         0.543737        -0.017271
 H        -0.068389        -0.509292        -1.387583
 H         1.523017         1.891182         1.524222
 H         1.693909         0.138587         2.078711
 H         4.898007        -0.327782         0.897835
 H         3.552910         2.907727         0.927108
 H         4.623396         2.055208        -0.443067
 H         1.689635         1.091309        -2.182062
 H         3.162411        -0.956206        -1.030479
