19
Iteration:  1782
 C         0.117108        -0.444849        -0.465172
 C         1.328459         0.374337        -0.182359
 C         1.878763         0.496117         1.297559
 C         3.259647         0.762156         0.659319
 O         4.318928         0.417757         1.438701
 C         3.461904         2.267601         0.338749
 O         2.708035         2.471938        -0.850137
 C         2.095199         1.324445        -1.216942
 C         2.795562         0.087607        -0.749882
 H         0.236964        -1.445052        -0.017369
 H        -0.963919        -0.193769        -0.225346
 H         0.108543        -0.638967        -1.608697
 H         1.502608         1.162658         2.125189
 H         1.877564        -0.488264         1.872839
 H         4.386143        -0.508972         1.366710
 H         3.179337         2.746195         1.308317
 H         4.560856         2.477747         0.117056
 H         1.677356         1.206480        -2.226174
 H         3.148432        -0.863776        -1.375251
