19
Iteration:  4887charge 0 multiplicity 1
 C         0.154530        -0.405505        -0.629539
 C         1.455137         0.230216        -0.306238
 C         1.752092         0.525595         1.174513
 C         3.235026         0.798727         0.670678
 O         4.316271         0.403814         1.430608
 C         3.498061         2.200406         0.390527
 O         2.529378         2.488011        -0.597152
 C         2.116733         1.262755        -1.178371
 C         2.907031         0.152547        -0.677955
 H         0.064700        -1.348253        -0.131369
 H        -0.647488         0.349682        -0.276775
 H        -0.020801        -0.627823        -1.738307
 H         1.320505         1.391626         1.706188
 H         1.771577        -0.503548         1.588821
 H         4.328225        -0.520842         1.565959
 H         3.529891         3.107696         1.040711
 H         4.512964         2.225595        -0.095737
 H         2.066988         1.221092        -2.251133
 H         3.497040        -0.651307        -1.126401
