19
Iteration:  1054charge 0 multiplicity 1
 C         0.083908        -0.490236        -0.446682
 C         1.351341         0.389813        -0.191191
 C         1.836926         0.830672         1.195072
 C         3.310418         0.799841         0.723319
 O         4.418402         0.188549         1.372784
 C         3.505339         2.282301         0.330134
 O         2.634410         2.446339        -0.897659
 C         2.040644         1.185454        -1.228771
 C         2.829425         0.082193        -0.584980
 H         0.160149        -1.543500        -0.023387
 H        -0.703030         0.210151         0.025269
 H        -0.238453        -0.519083        -1.509159
 H         1.401205         1.704038         1.766404
 H         1.776154        -0.009898         1.899843
 H         4.049949        -0.659079         1.646173
 H         3.081263         3.051459         1.037909
 H         4.600390         2.540965         0.129901
 H         1.641664         1.081091        -2.207785
 H         3.279779        -0.890867        -1.005090
