19
Iteration:  2558charge 0 multiplicity 1
 C         0.100359        -0.388948        -0.504599
 C         1.419613         0.262241        -0.293803
 C         1.909910         0.573553         1.130202
 C         3.343255         0.774187         0.631200
 O         4.273496         0.405296         1.483575
 C         3.610737         2.222583         0.185013
 O         2.378437         2.501739        -0.533904
 C         2.052863         1.270666        -1.193690
 C         2.954633         0.045728        -0.700591
 H         0.027860        -1.300420        -0.016878
 H        -0.716584         0.259295        -0.079234
 H        -0.002608        -0.691103        -1.494802
 H         1.561401         1.225385         2.011804
 H         1.787688        -0.351649         1.736397
 H         4.190149        -0.514900         1.671758
 H         3.683987         3.012915         0.991460
 H         4.376051         2.159376        -0.628815
 H         1.749043         1.342326        -2.198689
 H         3.591301        -0.682357        -1.293119
