19
Iteration:  2594
 C         0.188379        -0.548261        -0.467622
 C         1.445038         0.254427        -0.223191
 C         1.773937         0.698751         1.228499
 C         3.320392         0.796755         0.663557
 O         4.404543         0.130500         1.345181
 C         3.470356         2.331453         0.383274
 O         2.591435         2.570412        -0.819692
 C         1.946029         1.315872        -1.174336
 C         2.844377         0.119891        -0.637361
 H         0.130313        -1.381574         0.293804
 H        -0.663907         0.031171        -0.462634
 H         0.160801        -0.906335        -1.536347
 H         1.506949         1.768368         1.451119
 H         1.706972        -0.200173         1.805879
 H         4.092454        -0.602841         1.866984
 H         3.134060         3.059047         1.124223
 H         4.471500         2.684827         0.186683
 H         1.656871         1.379991        -2.266984
 H         3.391674        -0.590765        -1.215136
