19
Iteration:  4678
 C         0.168193        -0.459751        -0.758924
 C         1.359885         0.314691        -0.198452
 C         1.904511         0.531222         1.235703
 C         3.346544         0.700885         0.663638
 O         4.405226         0.302697         1.565513
 C         3.444838         2.281484         0.316652
 O         2.546663         2.582190        -0.753418
 C         1.977324         1.289607        -1.109046
 C         2.858775         0.146744        -0.663186
 H         0.025435        -1.391777        -0.324259
 H        -0.734744         0.202592        -0.937710
 H         0.425509        -0.669908        -1.858742
 H         1.463443         1.342996         1.802895
 H         1.682298        -0.456779         1.670897
 H         4.349949        -0.680047         1.740071
 H         3.211164         2.721637         1.283650
 H         4.432202         2.641120         0.117984
 H         1.554954         1.382417        -2.161415
 H         3.024554        -0.816521        -1.222002
