19
Iteration:  3949charge 0 multiplicity 1
 C         0.221742        -0.523719        -0.581300
 C         1.390600         0.320421        -0.240332
 C         1.843587         0.552964         1.186547
 C         3.217377         0.808227         0.709211
 O         4.241101         0.278581         1.459402
 C         3.575188         2.265425         0.344264
 O         2.521562         2.576151        -0.782713
 C         2.096248         1.294510        -1.173268
 C         2.877900         0.176887        -0.673129
 H         0.200990        -1.542504        -0.086615
 H        -0.649905        -0.038541        -0.255022
 H         0.225180        -0.820549        -1.675686
 H         1.351294         1.314819         1.862528
 H         1.827141        -0.465683         1.677683
 H         4.223477        -0.645700         1.835008
 H         3.326108         2.856288         1.266520
 H         4.574320         2.301427         0.101859
 H         1.880708         1.226932        -2.279774
 H         3.541905        -0.502554        -1.205878
