19
Iteration:   794charge 0 multiplicity 1
 C        -0.000475        -0.315858        -0.374653
 C         1.342437         0.344699        -0.144918
 C         1.847877         0.653731         1.206327
 C         3.314229         0.726461         0.648008
 O         4.379986         0.321455         1.523993
 C         3.705698         2.184399        -0.007340
 O         2.573218         2.465334        -0.824477
 C         2.065414         1.177553        -1.166378
 C         2.776404        -0.011825        -0.627409
 H        -0.429513        -0.935868         0.416441
 H        -0.774108         0.444591        -0.545782
 H        -0.047272        -0.833526        -1.309084
 H         1.449165         1.538126         1.774664
 H         1.696183        -0.214940         1.900230
 H         4.343441         0.815162         2.340325
 H         3.754941         3.030720         0.710674
 H         4.654584         2.059331        -0.573078
 H         1.609227         1.247316        -2.201200
 H         3.258373        -0.773198        -1.177864
