19
Iteration:  1751
 C         0.150020        -0.495695        -0.572155
 C         1.315537         0.369181        -0.145108
 C         1.785172         0.644187         1.342581
 C         3.254423         0.783704         0.724636
 O         4.509329         0.193771         1.302743
 C         3.365244         2.298640         0.380758
 O         2.709032         2.508907        -0.951771
 C         2.051599         1.299885        -1.151553
 C         2.797198         0.118639        -0.601617
 H         0.371470        -1.559186        -0.203367
 H        -0.921129        -0.231220        -0.476577
 H         0.233862        -0.585739        -1.768916
 H         1.403663         1.493372         1.914725
 H         1.749678        -0.322356         1.882703
 H         4.129359        -0.176869         2.180099
 H         2.955752         2.885142         1.190900
 H         4.410252         2.710373         0.221314
 H         1.623245         1.146049        -2.174386
 H         3.310741        -0.737522        -1.188222
