19
Iteration:  4099
 C         0.039787        -0.506075        -0.549964
 C         1.366859         0.317244        -0.309088
 C         1.859931         0.503442         1.187093
 C         3.335158         0.750982         0.745347
 O         4.405197         0.228262         1.482345
 C         3.454043         2.336532         0.396248
 O         2.468237         2.608617        -0.768035
 C         2.150720         1.235874        -1.219977
 C         2.981130         0.225054        -0.696837
 H         0.098728        -1.529692        -0.134413
 H        -0.807206         0.053277        -0.197637
 H        -0.151051        -0.518516        -1.635199
 H         1.347043         1.315256         1.761912
 H         1.532538        -0.395448         1.655821
 H         3.996132        -0.677970         1.654846
 H         3.233829         3.004994         1.226776
 H         4.428861         2.690019        -0.042045
 H         1.982283         1.036333        -2.287534
 H         3.498978        -0.633639        -1.130660
