19
Iteration:    44charge 0 multiplicity 1
 C         0.030005        -0.285462        -0.033182
 C         1.351642         0.438484        -0.031581
 C         1.836022         0.916645         1.307535
 C         3.272377         0.777540         0.725433
 O         4.326813         0.243404         1.504752
 C         3.608506         2.044738        -0.009807
 O         2.866435         2.311280        -1.217044
 C         1.997569         1.217980        -1.275796
 C         2.632408        -0.001969        -0.625054
 H        -0.111272        -0.829098         0.920664
 H        -0.717473         0.504343        -0.202205
 H        -0.153874        -1.047317        -0.803054
 H         1.440978         1.897314         1.786735
 H         1.661575         0.127985         2.084646
 H         4.944600         0.004985         0.788727
 H         3.501255         2.868722         0.675918
 H         4.694410         1.976215        -0.230083
 H         1.424542         1.288902        -2.200106
 H         2.869522        -0.886350        -1.192124
