19
Iteration:  3078
 C         0.140031        -0.574426        -0.427502
 C         1.303931         0.400606        -0.270821
 C         1.887014         0.592404         1.140770
 C         3.287160         0.739602         0.659125
 O         4.321596         0.168738         1.476825
 C         3.520340         2.283243         0.322860
 O         2.567166         2.554784        -0.735659
 C         2.106477         1.332395        -1.287726
 C         2.846637         0.146801        -0.701637
 H         0.154789        -1.441652         0.280982
 H        -0.847446        -0.006966        -0.355044
 H        -0.009161        -0.976615        -1.482635
 H         1.485335         1.357876         1.910336
 H         1.688892        -0.351919         1.673263
 H         4.723745         0.949819         1.857692
 H         3.231102         2.830324         1.209293
 H         4.599970         2.562521         0.172164
 H         1.663933         1.276077        -2.307392
 H         3.370044        -0.741545        -1.109912
