19
Iteration:  4491
 C         0.099827        -0.509425        -0.541686
 C         1.343865         0.239941        -0.311379
 C         1.822368         0.432089         1.190568
 C         3.301656         0.859357         0.747784
 O         4.277799         0.225949         1.395780
 C         3.473518         2.383196         0.450813
 O         2.571507         2.573914        -0.775236
 C         2.149811         1.289123        -1.238322
 C         2.977009         0.238197        -0.641069
 H         0.158571        -1.243022         0.169722
 H        -0.871950         0.074270        -0.475056
 H         0.120288        -1.021559        -1.493420
 H         1.243601         0.977322         1.924828
 H         1.850061        -0.595471         1.632189
 H         4.155147        -0.704904         1.297043
 H         3.013961         2.998102         1.210222
 H         4.471696         2.775698         0.255082
 H         2.003195         1.323621        -2.335320
 H         3.631797        -0.479137        -1.062974
