19
Iteration:    59charge 0 multiplicity 1
 C         0.089562        -0.151705        -0.133661
 C         1.378330         0.450237        -0.015796
 C         1.888595         0.933505         1.320040
 C         3.232599         0.749554         0.629825
 O         4.279704         0.260178         1.424178
 C         3.642873         2.089076         0.004998
 O         2.735254         2.307457        -1.150310
 C         1.953557         1.097789        -1.168122
 C         2.749661        -0.033394        -0.556877
 H        -0.062224        -0.794164         0.730110
 H        -0.703364         0.631660        -0.227025
 H         0.012323        -0.790003        -1.008735
 H         1.659606         1.912052         1.560912
 H         1.644842         0.232250         2.096639
 H         4.607813        -0.630019         1.124790
 H         3.544110         2.972020         0.698283
 H         4.659770         2.035784        -0.347482
 H         1.387456         0.793861        -2.149173
 H         3.171584        -0.986324        -0.901900
