19
Iteration:  2354
 C         0.111118        -0.483814        -0.499789
 C         1.388319         0.340657        -0.214027
 C         1.773952         0.535172         1.216985
 C         3.283506         0.713683         0.704966
 O         4.501920         0.325986         1.385469
 C         3.480897         2.301025         0.366935
 O         2.574392         2.545507        -0.821438
 C         2.021244         1.269796        -1.211880
 C         2.855192         0.143812        -0.674462
 H         0.071156        -1.435979        -0.095783
 H        -0.675369         0.115779        -0.175264
 H        -0.019899        -0.770918        -1.628847
 H         1.321392         1.311064         1.794915
 H         1.523456        -0.299092         1.852899
 H         4.482198        -0.597712         1.581848
 H         3.190866         2.806965         1.355400
 H         4.597492         2.550314         0.124021
 H         1.377313         1.384707        -2.070018
 H         3.329005        -0.760862        -1.101321
