19
Iteration:  2505charge 0 multiplicity 1
 C         0.133636        -0.471892        -0.693445
 C         1.312016         0.247903        -0.138749
 C         1.857431         0.590383         1.271735
 C         3.319426         0.783950         0.652578
 O         4.433823         0.365633         1.334600
 C         3.515918         2.283829         0.283572
 O         2.564550         2.522730        -0.686960
 C         1.994921         1.234678        -1.147272
 C         2.801704         0.106228        -0.590085
 H         0.200453        -1.570047        -0.351345
 H        -0.774902        -0.021027        -0.228985
 H         0.090087        -0.307656        -1.803490
 H         1.426529         1.470463         1.891047
 H         2.118776        -0.233052         1.962101
 H         4.152543        -0.496463         1.630555
 H         3.349975         2.928525         1.186053
 H         4.545761         2.412173        -0.028601
 H         1.790950         1.124731        -2.175851
 H         3.286480        -0.731959        -1.170319
