19
Iteration:   546charge 0 multiplicity 1
 C        -0.077508        -0.293863        -0.334182
 C         1.325427         0.336740        -0.142027
 C         1.816701         0.832480         1.207207
 C         3.386218         0.847587         0.622291
 O         4.372498         0.322182         1.499821
 C         3.731932         2.192463        -0.039572
 O         2.607893         2.372413        -0.781364
 C         2.082162         1.122665        -1.213173
 C         2.756440        -0.038600        -0.559959
 H        -0.235058        -1.021152         0.516717
 H        -0.845853         0.438952        -0.220314
 H        -0.265326        -0.960059        -1.205161
 H         1.402104         1.822532         1.540171
 H         1.876088         0.032429         1.973761
 H         3.995027        -0.579186         1.635968
 H         3.891904         3.007371         0.698616
 H         4.659947         2.201868        -0.735304
 H         1.772884         1.019972        -2.263298
 H         3.191760        -0.985189        -0.989284
