19
Iteration:  4714
 C         0.084003        -0.409333        -0.687881
 C         1.418616         0.238582        -0.311792
 C         1.737781         0.533787         1.099259
 C         3.301067         0.744404         0.672369
 O         4.338558         0.416843         1.429054
 C         3.567931         2.196535         0.253324
 O         2.443099         2.548708        -0.467598
 C         2.104092         1.260457        -1.129610
 C         3.034536         0.096618        -0.624953
 H        -0.222767        -1.327849        -0.140525
 H        -0.685443         0.231312        -0.376486
 H         0.077081        -0.625278        -1.758434
 H         1.166239         1.379347         1.588419
 H         1.676131        -0.346141         1.710188
 H         4.313981        -0.473740         1.893436
 H         3.596451         2.909031         1.112181
 H         4.493559         2.249752        -0.361251
 H         1.958719         1.375802        -2.197530
 H         3.523294        -0.662995        -1.159548
