19
Iteration:  4811
 C         0.199476        -0.638857        -0.685026
 C         1.351345         0.313544        -0.309977
 C         1.726316         0.600379         1.244946
 C         3.214548         0.787303         0.772806
 O         4.383794         0.287024         1.335810
 C         3.550903         2.237871         0.339959
 O         2.639365         2.617759        -0.672531
 C         2.025720         1.338547        -1.126902
 C         2.837601         0.121656        -0.604550
 H         0.054096        -1.574596        -0.161345
 H        -0.730603        -0.011049        -0.515585
 H         0.357687        -0.828944        -1.803572
 H         1.243282         1.502204         1.734577
 H         1.611955        -0.337883         1.810435
 H         4.300426        -0.450273         2.015323
 H         3.427903         2.985301         1.165973
 H         4.583705         2.337299         0.019024
 H         1.906765         1.350326        -2.201730
 H         3.385255        -0.482934        -1.315808
