19
Iteration:  1314charge 0 multiplicity 1
 C         0.147915        -0.624234        -0.424750
 C         1.294386         0.396937        -0.187424
 C         1.815751         0.616558         1.233918
 C         3.226937         0.826674         0.701071
 O         4.228373         0.147263         1.384225
 C         3.519545         2.322999         0.378204
 O         2.700776         2.539496        -0.833344
 C         2.156059         1.309946        -1.303271
 C         2.807648         0.174645        -0.645170
 H         0.291259        -1.392849         0.388864
 H        -0.828896        -0.160574        -0.426742
 H         0.130973        -1.250823        -1.398307
 H         1.478843         1.319496         1.953589
 H         1.913285        -0.241108         1.845449
 H         5.053134         0.324817         0.881329
 H         3.201245         3.025111         1.153899
 H         4.602257         2.511076         0.089229
 H         1.671384         1.273586        -2.289423
 H         3.376490        -0.593396        -1.112156
