19
Iteration:  2555
 C         0.116434        -0.386197        -0.511745
 C         1.429971         0.247281        -0.285534
 C         1.906527         0.583563         1.124897
 C         3.333363         0.753651         0.643779
 O         4.303326         0.440233         1.506001
 C         3.616541         2.202766         0.157260
 O         2.363738         2.489172        -0.530784
 C         2.068377         1.289499        -1.179362
 C         2.912394         0.043605        -0.693805
 H        -0.007467        -1.343697         0.017425
 H        -0.681143         0.313857        -0.082584
 H        -0.001150        -0.552783        -1.607718
 H         1.437783         1.169855         1.893908
 H         1.822433        -0.438531         1.622761
 H         4.166057        -0.539355         1.601387
 H         3.751857         2.882144         1.018137
 H         4.399793         2.154051        -0.665060
 H         1.709266         1.393854        -2.226390
 H         3.503188        -0.627701        -1.298436
