19
Iteration:  3083charge 0 multiplicity 1
 C         0.117022        -0.530269        -0.445300
 C         1.317248         0.376862        -0.267014
 C         1.894253         0.589248         1.150905
 C         3.325081         0.804613         0.646337
 O         4.310039         0.178497         1.494982
 C         3.515957         2.226297         0.323254
 O         2.531209         2.535106        -0.728641
 C         2.123649         1.329176        -1.262620
 C         2.821340         0.129836        -0.724917
 H         0.249947        -1.382191         0.235409
 H        -0.806011        -0.009359        -0.333496
 H         0.094023        -1.004909        -1.406086
 H         1.449414         1.317021         1.783808
 H         1.792115        -0.399831         1.620194
 H         4.736845         1.006668         1.809806
 H         3.276122         2.861159         1.219832
 H         4.555297         2.441161         0.064546
 H         1.783849         1.435743        -2.281495
 H         3.410230        -0.711310        -1.091505
