19
Iteration:    83charge 0 multiplicity 1
 C        -0.206113        -0.222769        -0.277808
 C         1.248004         0.358113        -0.065141
 C         1.984192         1.045334         1.243224
 C         3.387449         0.889878         0.647274
 O         4.470819         0.198065         1.452203
 C         3.764294         2.181202        -0.123010
 O         2.595777         2.329253        -0.926958
 C         2.081705         1.007882        -1.228083
 C         2.667925        -0.090404        -0.411216
 H        -0.395262        -1.140123         0.360778
 H        -0.863030         0.652791        -0.125207
 H        -0.443318        -0.544592        -1.325168
 H         1.624006         1.912939         1.742056
 H         1.970479         0.202317         1.926142
 H         3.965859        -0.594478         1.744872
 H         3.693591         3.098833         0.527119
 H         4.728534         2.293541        -0.664869
 H         1.856214         0.758612        -2.253439
 H         3.057149        -1.029948        -0.828836
