19
Iteration:  3854charge 0 multiplicity 1
 C         0.042871        -0.445389        -0.559646
 C         1.483884         0.144937        -0.358541
 C         1.842364         0.545658         1.063777
 C         3.302508         0.799079         0.686427
 O         4.244787         0.314033         1.563652
 C         3.557951         2.265552         0.255489
 O         2.426662         2.520707        -0.616928
 C         2.145332         1.282489        -1.129871
 C         3.041359         0.196389        -0.695547
 H        -0.070118        -1.323805         0.030564
 H        -0.674847         0.353566        -0.151706
 H        -0.039267        -0.838657        -1.570400
 H         1.385081         1.373995         1.568307
 H         1.868456        -0.266557         1.816395
 H         3.892508        -0.438171         2.051902
 H         3.658837         3.064758         0.994303
 H         4.371577         2.437888        -0.562612
 H         1.667619         1.316887        -2.116455
 H         3.581965        -0.415516        -1.413205
