19
Iteration:  2627charge 0 multiplicity 1
 C         0.241200        -0.628048        -0.561132
 C         1.259314         0.437501        -0.153221
 C         1.842409         0.632527         1.351031
 C         3.167151         0.756799         0.700497
 O         4.427984         0.284477         1.285208
 C         3.564644         2.292943         0.326649
 O         2.678103         2.527694        -0.822186
 C         2.029213         1.341187        -1.267463
 C         2.685013         0.124601        -0.549225
 H         0.435199        -1.562082        -0.019775
 H        -0.726754        -0.348910        -0.494241
 H         0.497233        -0.812232        -1.630077
 H         1.303475         1.292841         2.104997
 H         1.765012        -0.360748         1.816506
 H         4.082205        -0.483531         1.721825
 H         3.249332         2.918308         1.132342
 H         4.599456         2.213780         0.134207
 H         1.885352         1.457725        -2.393594
 H         3.127407        -0.703900        -1.018599
