19
Iteration:  3394
 C         0.189840        -0.559435        -0.793472
 C         1.343248         0.235913        -0.214614
 C         1.826496         0.560335         1.296467
 C         3.337235         0.851371         0.682555
 O         4.403750         0.266656         1.516876
 C         3.622105         2.321027         0.183023
 O         2.447228         2.611474        -0.592248
 C         1.999932         1.277147        -1.152412
 C         2.817920         0.169753        -0.632005
 H         0.260501        -1.603415        -0.674373
 H        -0.867579        -0.347894        -0.370672
 H         0.215353        -0.578414        -1.946177
 H         1.302328         1.355635         1.815964
 H         1.862872        -0.389706         1.809554
 H         4.199756        -0.707282         1.722898
 H         3.734970         2.965551         1.120158
 H         4.466943         2.125593        -0.403729
 H         1.498344         1.401129        -2.132398
 H         3.449060        -0.448673        -1.223829
