19
Iteration:  1201charge 0 multiplicity 1
 C         0.116207        -0.452491        -0.489854
 C         1.291821         0.375280        -0.180553
 C         1.889270         0.612036         1.242423
 C         3.334036         0.803582         0.643844
 O         4.274901         0.203530         1.443239
 C         3.540114         2.310237         0.264105
 O         2.633249         2.480749        -0.799932
 C         2.020404         1.216453        -1.208386
 C         2.803253         0.079023        -0.669633
 H         0.204429        -1.464403        -0.023184
 H        -0.835251         0.165120        -0.265600
 H         0.091202        -0.742397        -1.580223
 H         1.409439         1.367284         1.859218
 H         2.046334        -0.320162         1.834664
 H         4.981621         0.809489         1.819265
 H         3.213566         2.970639         1.114361
 H         4.660174         2.518996         0.039706
 H         1.826244         1.282454        -2.266334
 H         3.305425        -0.786153        -1.118332
