19
Iteration:  1579charge 0 multiplicity 1
 C         0.121966        -0.480085        -0.547793
 C         1.375656         0.325616        -0.252389
 C         1.798822         0.484103         1.209385
 C         3.273384         0.790115         0.744146
 O         4.332274         0.244330         1.560573
 C         3.520192         2.291630         0.241051
 O         2.628853         2.547275        -0.818523
 C         2.053967         1.280264        -1.154426
 C         2.826345         0.155801        -0.662993
 H         0.275427        -1.489094        -0.073607
 H        -0.778826        -0.040364        -0.055750
 H        -0.066246        -0.684181        -1.595294
 H         1.274691         1.378803         1.717840
 H         1.654355        -0.525581         1.616554
 H         5.118116         0.460222         1.084112
 H         3.366173         2.848846         1.188521
 H         4.570979         2.463638        -0.117727
 H         1.640810         1.420850        -2.171915
 H         3.302007        -0.583874        -1.449064
