19
Iteration:  1240
 C         0.124707        -0.400288        -0.610279
 C         1.391791         0.238281        -0.203754
 C         1.801860         0.592781         1.195838
 C         3.277015         0.826719         0.656963
 O         4.385105         0.442500         1.595260
 C         3.708278         2.132460         0.093516
 O         2.474947         2.509616        -0.602950
 C         2.008002         1.273688        -1.143819
 C         2.784023         0.031217        -0.703692
 H         0.115551        -1.465218        -0.322500
 H        -0.705453         0.078368        -0.116714
 H        -0.153810        -0.283541        -1.655995
 H         1.312710         1.428245         1.795716
 H         1.627849        -0.260890         1.852400
 H         4.668211        -0.413779         1.301113
 H         3.969628         2.917132         0.802355
 H         4.485744         2.024965        -0.670768
 H         1.780691         1.259965        -2.240174
 H         3.367136        -0.765608        -1.092253
