19
Iteration:  3876charge 0 multiplicity 1
 C         0.229881        -0.467599        -0.617170
 C         1.479322         0.286367        -0.274815
 C         1.703929         0.589500         1.194656
 C         3.290972         0.794683         0.726407
 O         4.390396         0.314414         1.474884
 C         3.513084         2.240861         0.361623
 O         2.470579         2.549245        -0.659523
 C         2.070667         1.250478        -1.308906
 C         2.856678         0.118834        -0.647807
 H         0.086101        -1.431733        -0.185715
 H        -0.640240         0.186769        -0.290911
 H         0.198682        -0.652293        -1.702676
 H         1.345433         1.489397         1.603643
 H         1.526954        -0.263271         1.869578
 H         4.225569        -0.570211         1.870346
 H         3.481312         2.954756         1.188808
 H         4.573309         2.372931        -0.148657
 H         1.646542         1.048227        -2.285482
 H         3.427749        -0.620087        -1.235052
