19
Iteration:   985
 C         0.043773        -0.352230        -0.496920
 C         1.356159         0.334374        -0.165399
 C         1.832201         0.693672         1.267977
 C         3.292686         0.758104         0.664417
 O         4.431968         0.241815         1.458785
 C         3.590302         2.209827         0.144367
 O         2.545890         2.486970        -0.863004
 C         2.054568         1.191410        -1.141798
 C         2.834556        -0.013120        -0.618358
 H        -0.133569        -1.184729         0.248786
 H        -0.685708         0.415142        -0.377593
 H        -0.003823        -0.669873        -1.601078
 H         1.502783         1.609994         1.867080
 H         1.645156        -0.182383         1.985625
 H         4.417651         0.938239         2.198865
 H         3.610226         2.902817         1.024230
 H         4.575492         2.227947        -0.387278
 H         1.576257         1.282745        -2.167137
 H         3.183293        -0.790737        -1.247212
