19
Iteration:  4558
 C         0.163687        -0.501695        -0.822233
 C         1.419563         0.267155        -0.237924
 C         1.762095         0.529274         1.258762
 C         3.265978         0.846069         0.803565
 O         4.420222         0.265992         1.511352
 C         3.660553         2.240094         0.165070
 O         2.412184         2.597719        -0.589652
 C         1.999980         1.321782        -1.171169
 C         2.873492         0.148497        -0.606824
 H         0.219527        -1.493434        -0.510963
 H        -0.836993        -0.090547        -0.538308
 H         0.238515        -0.568707        -1.965088
 H         1.188066         1.304989         1.810213
 H         1.812242        -0.413519         1.828176
 H         4.089627        -0.536580         1.982811
 H         3.929782         3.059297         0.826600
 H         4.508904         2.163953        -0.531136
 H         1.690790         1.248036        -2.200680
 H         3.474743        -0.613261        -1.172553
