19
Iteration:   835charge 0 multiplicity 1
 C         0.048035        -0.256631        -0.469555
 C         1.385081         0.254294        -0.095928
 C         1.894953         0.795921         1.225852
 C         3.312342         0.834871         0.673921
 O         4.312253         0.343372         1.492668
 C         3.618556         2.159713         0.058966
 O         2.504717         2.403107        -0.761895
 C         2.102283         1.115649        -1.172281
 C         2.807075        -0.058809        -0.616255
 H        -0.147148        -1.217018         0.050692
 H        -0.598668         0.625726        -0.007605
 H        -0.012543        -0.304817        -1.584585
 H         1.392908         1.796826         1.473234
 H         1.745998         0.107810         2.115051
 H         4.677334        -0.335325         0.841566
 H         3.723222         2.914952         0.882646
 H         4.555538         2.342672        -0.508076
 H         1.653438         1.008303        -2.214531
 H         3.296337        -0.944533        -1.056263
