19
Iteration:  1426charge 0 multiplicity 1
 C         0.097578        -0.465534        -0.519112
 C         1.440803         0.279622        -0.273378
 C         1.821509         0.620013         1.173403
 C         3.260418         0.734705         0.637263
 O         4.240779         0.280699         1.507455
 C         3.557345         2.248648         0.277688
 O         2.588308         2.564584        -0.698156
 C         2.067388         1.262124        -1.170379
 C         2.859781         0.052776        -0.654373
 H         0.372345        -1.477598        -0.166278
 H        -0.758883         0.050870        -0.067238
 H        -0.195863        -0.477219        -1.581522
 H         1.485390         1.406287         1.796223
 H         1.839910        -0.244817         1.745255
 H         5.116388         0.493172         1.130957
 H         3.346639         2.962148         1.087288
 H         4.544380         2.443400        -0.148401
 H         1.729243         1.383761        -2.200998
 H         3.371252        -0.771363        -1.257544
