19
Iteration:  4586
 C         0.209125        -0.491580        -0.693293
 C         1.488110         0.192210        -0.240769
 C         1.850429         0.608229         1.177320
 C         3.277282         0.844714         0.660613
 O         4.227056         0.273828         1.562510
 C         3.624002         2.218657         0.203236
 O         2.444497         2.586498        -0.545519
 C         1.982148         1.314402        -1.125235
 C         2.941721         0.117776        -0.738305
 H         0.436686        -1.584149        -0.521460
 H        -0.728797        -0.114551        -0.226665
 H         0.013367        -0.349334        -1.735449
 H         1.322396         1.477617         1.599681
 H         1.813042        -0.212332         1.940635
 H         3.899516        -0.591784         1.770423
 H         3.773809         2.948853         1.024242
 H         4.517465         2.284485        -0.452449
 H         1.647047         1.215494        -2.152349
 H         3.463402        -0.403062        -1.494195
