19
Iteration:  2143charge 0 multiplicity 1
 C         0.114717        -0.443650        -0.660557
 C         1.339355         0.244668        -0.134762
 C         1.928389         0.578359         1.265405
 C         3.291351         0.834955         0.631364
 O         4.369482         0.338106         1.364645
 C         3.557401         2.281413         0.270222
 O         2.512792         2.507139        -0.644282
 C         2.014541         1.252376        -1.133153
 C         2.815394         0.080761        -0.664972
 H         0.213618        -1.531760        -0.578573
 H        -0.779303        -0.105858        -0.140054
 H         0.095235        -0.424616        -1.776719
 H         1.557492         1.358762         1.936260
 H         1.905971        -0.376615         1.758538
 H         4.335459        -0.139590         2.167679
 H         3.707751         3.190542         0.892392
 H         4.467469         2.124901        -0.353601
 H         1.683511         1.309659        -2.149504
 H         3.339743        -0.786414        -1.227597
