19
Iteration:  1372
 C         0.134290        -0.387688        -0.659782
 C         1.417290         0.222803        -0.153046
 C         1.883255         0.683807         1.231471
 C         3.334604         0.796082         0.632568
 O         4.364171         0.246487         1.435056
 C         3.538357         2.260100         0.212764
 O         2.410338         2.510754        -0.622360
 C         2.086860         1.200085        -1.201622
 C         2.844501         0.054364        -0.628512
 H        -0.200064        -1.364344        -0.240988
 H        -0.725213         0.331789        -0.451321
 H         0.261259        -0.519174        -1.747988
 H         1.584472         1.639317         1.695801
 H         2.042050        -0.129364         1.935255
 H         4.128706         0.188129         2.390764
 H         3.558268         3.056929         0.996258
 H         4.454768         2.453373        -0.460597
 H         1.762510         1.210958        -2.251229
 H         3.249635        -0.859696        -1.138000
