19
Iteration:  4810charge 0 multiplicity 1
 C         0.192922        -0.649885        -0.692622
 C         1.349651         0.317152        -0.307360
 C         1.720717         0.604172         1.241384
 C         3.219378         0.792501         0.780859
 O         4.388507         0.282820         1.333998
 C         3.554401         2.236740         0.346533
 O         2.645836         2.615593        -0.675129
 C         2.024164         1.344033        -1.133414
 C         2.834759         0.127202        -0.597121
 H         0.074004        -1.555294        -0.155620
 H        -0.750958        -0.021135        -0.492467
 H         0.348029        -0.857765        -1.815311
 H         1.242111         1.478037         1.758292
 H         1.602171        -0.349413         1.829651
 H         4.307326        -0.442556         2.003771
 H         3.401229         2.988200         1.153508
 H         4.602739         2.333572         0.003436
 H         1.855370         1.315933        -2.224020
 H         3.399098        -0.435700        -1.327388
