19
Iteration:  3803
 C         0.237299        -0.525598        -0.676222
 C         1.356474         0.271569        -0.246283
 C         1.745412         0.589640         1.287788
 C         3.201527         0.759716         0.749890
 O         4.393831         0.352164         1.412582
 C         3.490713         2.173549         0.350060
 O         2.568462         2.597387        -0.706014
 C         2.079571         1.260621        -1.201589
 C         2.871795         0.140627        -0.684617
 H         0.185217        -1.493649        -0.124429
 H        -0.701539         0.106602        -0.560361
 H         0.360256        -0.744993        -1.734314
 H         1.414339         1.670105         1.652218
 H         1.433098        -0.161965         2.043334
 H         4.257606        -0.501255         1.788257
 H         3.394428         2.948700         1.109137
 H         4.457330         2.294321        -0.038823
 H         1.870141         1.350603        -2.245101
 H         3.519630        -0.613383        -1.207418
