19
Iteration:  3126charge 0 multiplicity 1
 C         0.065010        -0.370940        -0.706760
 C         1.402972         0.130264        -0.187096
 C         1.865461         0.644809         1.219154
 C         3.346558         0.821145         0.695554
 O         4.369642         0.283126         1.535290
 C         3.540290         2.239537         0.170694
 O         2.397192         2.498489        -0.599545
 C         2.011118         1.259094        -1.146515
 C         2.934697         0.131751        -0.642275
 H        -0.122647        -1.424355        -0.320386
 H        -0.743480         0.296185        -0.597771
 H         0.028451        -0.537187        -1.746180
 H         1.315562         1.440952         1.637954
 H         2.019357        -0.035237         2.037614
 H         5.173570        -0.182925         1.114726
 H         3.850900         2.978780         0.919981
 H         4.406058         2.199578        -0.488007
 H         1.651952         1.134108        -2.145312
 H         3.528968        -0.559968        -1.267484
