19
Iteration:  4346charge 0 multiplicity 1
 C         0.173296        -0.625036        -0.529344
 C         1.322665         0.334031        -0.425045
 C         1.747208         0.556059         1.144156
 C         3.232676         0.828449         0.705297
 O         4.397359         0.258028         1.387783
 C         3.451066         2.293678         0.464389
 O         2.613722         2.563229        -0.649131
 C         2.106062         1.309854        -1.162086
 C         2.910101         0.246386        -0.700064
 H         0.277409        -1.321928         0.225553
 H        -0.841399        -0.109778        -0.515565
 H         0.216982        -1.222468        -1.396414
 H         1.270343         1.352443         1.601366
 H         1.544892        -0.357615         1.768439
 H         4.280846        -0.737934         1.322278
 H         3.236411         2.886356         1.383767
 H         4.531630         2.366301         0.227528
 H         1.882073         1.291894        -2.203062
 H         3.490152        -0.512370        -1.266838
