19
Iteration:  2625
 C         0.243629        -0.641215        -0.549958
 C         1.270997         0.443024        -0.139524
 C         1.834567         0.646197         1.351782
 C         3.167889         0.753492         0.694168
 O         4.416066         0.283636         1.265529
 C         3.551763         2.289769         0.336982
 O         2.673595         2.513692        -0.820592
 C         2.055558         1.347511        -1.267680
 C         2.694122         0.123307        -0.552560
 H         0.428923        -1.527802        -0.016548
 H        -0.833644        -0.349900        -0.557107
 H         0.519570        -0.767320        -1.579540
 H         1.319946         1.388524         2.100974
 H         1.814572        -0.396357         1.786364
 H         4.024947        -0.499084         1.738597
 H         3.156413         2.930260         1.162577
 H         4.663485         2.223473         0.131290
 H         1.878316         1.487463        -2.369592
 H         3.153611        -0.696928        -1.067064
