19
Iteration:  3795
 C         0.200366        -0.568821        -0.712491
 C         1.375576         0.256139        -0.221440
 C         1.673152         0.665688         1.321735
 C         3.195947         0.783557         0.752006
 O         4.393023         0.330355         1.340721
 C         3.463559         2.237526         0.345744
 O         2.628269         2.583354        -0.712621
 C         2.110638         1.260223        -1.186740
 C         2.868830         0.152758        -0.624642
 H         0.140536        -1.581146        -0.212285
 H        -0.732237        -0.152416        -0.689935
 H         0.351104        -0.682337        -1.801198
 H         1.350143         1.510021         1.924388
 H         1.729953        -0.217902         1.971971
 H         4.331675        -0.558450         1.651294
 H         3.439747         2.818204         1.333369
 H         4.517916         2.281928        -0.071996
 H         1.745394         1.227646        -2.209801
 H         3.508481        -0.615072        -1.101506
