19
Iteration:   384charge 0 multiplicity 1
 C         0.037521        -0.214893        -0.344650
 C         1.339179         0.322815        -0.074466
 C         1.880270         0.888872         1.289259
 C         3.279072         0.815517         0.680887
 O         4.331964         0.292378         1.468735
 C         3.698310         1.966800        -0.053342
 O         2.573835         2.419422        -0.798126
 C         1.958773         1.130871        -1.245495
 C         2.783471        -0.043716        -0.562847
 H        -0.357575        -0.956413         0.413240
 H        -0.646274         0.740173        -0.302965
 H        -0.063353        -0.739177        -1.352635
 H         1.683600         1.959689         1.415499
 H         1.804443         0.198171         2.106819
 H         5.181110         0.660981         1.196679
 H         4.118929         2.863559         0.382394
 H         4.449121         1.655923        -0.776193
 H         1.738870         0.885675        -2.206888
 H         3.252196        -0.976828        -0.937223
