19
Iteration:  2645charge 0 multiplicity 1
 C         0.182245        -0.587557        -0.624064
 C         1.315593         0.401331        -0.140768
 C         1.740434         0.548975         1.261067
 C         3.306629         0.787281         0.750545
 O         4.433536         0.327740         1.431337
 C         3.581868         2.218088         0.215935
 O         2.627464         2.566590        -0.828036
 C         2.011235         1.313418        -1.107539
 C         2.761783         0.152814        -0.626171
 H         0.419202        -1.502528        -0.090752
 H        -0.956046        -0.234566        -0.302549
 H         0.122367        -0.697154        -1.704670
 H         1.385656         1.434501         1.849774
 H         1.836372        -0.469967         1.712177
 H         4.237599        -0.576556         1.634631
 H         3.439838         3.048552         1.013080
 H         4.627478         2.163212        -0.337299
 H         1.425647         1.353129        -2.028746
 H         3.074667        -0.743915        -1.211078
