19
Iteration:  3529
 C         0.183859        -0.530482        -0.801708
 C         1.323004         0.295330        -0.274700
 C         1.820423         0.541729         1.265723
 C         3.332245         0.758185         0.719007
 O         4.474182         0.293835         1.432464
 C         3.564017         2.289370         0.257097
 O         2.455554         2.533124        -0.588221
 C         1.991401         1.333476        -1.145946
 C         2.775683         0.115837        -0.640048
 H         0.373054        -1.564163        -0.420812
 H        -0.727486        -0.034134        -0.381422
 H         0.405237        -0.677095        -1.820776
 H         1.461372         1.403235         1.817269
 H         1.722796        -0.333578         1.840582
 H         4.355881         0.350062         2.390405
 H         3.469933         3.141625         1.046588
 H         4.588034         2.131708        -0.132467
 H         1.666546         1.387329        -2.167450
 H         3.298479        -0.592629        -1.296300
