19
Iteration:  2932
 C         0.198935        -0.451795        -0.530151
 C         1.394187         0.381829        -0.170532
 C         1.833876         0.647420         1.250143
 C         3.293089         0.739163         0.683593
 O         4.355014         0.192669         1.419273
 C         3.418395         2.326674         0.276931
 O         2.527075         2.524428        -0.758737
 C         2.069893         1.236468        -1.212423
 C         2.938191         0.130508        -0.634365
 H        -0.074997        -1.191967         0.122700
 H        -0.768188         0.139417        -0.474288
 H         0.316388        -0.725253        -1.591573
 H         1.309219         1.436390         1.821356
 H         1.590903        -0.234280         1.887444
 H         4.432653        -0.723667         1.017354
 H         3.019112         2.985272         1.047926
 H         4.444090         2.534075         0.008866
 H         1.864895         1.059435        -2.279071
 H         3.377969        -0.787676        -1.150482
