19
Iteration:   548charge 0 multiplicity 1
 C        -0.069541        -0.293657        -0.319272
 C         1.313970         0.332090        -0.158161
 C         1.822323         0.826024         1.208319
 C         3.373745         0.848856         0.641626
 O         4.387039         0.327116         1.494376
 C         3.737444         2.179743        -0.027516
 O         2.616200         2.373660        -0.795982
 C         2.066894         1.142412        -1.218710
 C         2.748939        -0.045608        -0.554544
 H        -0.234249        -1.022163         0.472725
 H        -0.882216         0.411975        -0.289783
 H        -0.258545        -0.990257        -1.160073
 H         1.426340         1.813276         1.573501
 H         1.883071        -0.007319         1.919879
 H         3.934565        -0.547060         1.704389
 H         3.869862         2.996006         0.713195
 H         4.741570         2.283822        -0.737544
 H         1.770191         1.031750        -2.329808
 H         3.159070        -0.976056        -0.967426
