19
Iteration:   596charge 0 multiplicity 1
 C         0.092973        -0.372551        -0.317403
 C         1.356897         0.452550        -0.031790
 C         1.868379         0.789336         1.347268
 C         3.295640         0.797227         0.664019
 O         4.280792         0.160077         1.357065
 C         3.567618         2.259430         0.162427
 O         2.804081         2.375076        -1.097949
 C         1.992851         1.177424        -1.234201
 C         2.663951         0.016884        -0.549425
 H        -0.248745        -0.962963         0.543052
 H        -0.711974         0.372580        -0.605161
 H         0.175128        -1.128570        -1.100267
 H         1.508256         1.646255         1.882811
 H         1.839816        -0.176131         1.837102
 H         4.895802         0.728911         1.820053
 H         3.236140         3.044878         0.909708
 H         4.712780         2.376783         0.053664
 H         1.468940         1.085910        -2.125739
 H         3.090251        -0.919029        -0.933808
