19
Iteration:  1431charge 0 multiplicity 1
 C         0.143123        -0.479583        -0.506305
 C         1.354639         0.308511        -0.249215
 C         1.824862         0.605703         1.134738
 C         3.307443         0.725583         0.637840
 O         4.230685         0.294571         1.528898
 C         3.513120         2.252582         0.281629
 O         2.637289         2.583983        -0.734187
 C         2.065963         1.269122        -1.141032
 C         2.835569         0.033823        -0.686116
 H         0.357789        -1.490355        -0.148138
 H        -0.743572        -0.019217        -0.016746
 H        -0.042165        -0.552008        -1.587065
 H         1.460371         1.388532         1.887635
 H         1.890479        -0.374433         1.766865
 H         5.098814         0.346640         1.039919
 H         3.337463         2.906287         1.170228
 H         4.555256         2.500498        -0.122586
 H         1.759706         1.468648        -2.165381
 H         3.275581        -0.736128        -1.260517
