19
Iteration:  3094
 C         0.133772        -0.421956        -0.523645
 C         1.432072         0.291478        -0.276462
 C         1.857569         0.580808         1.165948
 C         3.299216         0.782988         0.655544
 O         4.278568         0.261885         1.502732
 C         3.525040         2.225108         0.267438
 O         2.506972         2.527582        -0.650243
 C         2.061494         1.260465        -1.192514
 C         2.839186         0.089712        -0.726607
 H         0.159816        -1.197974         0.273000
 H        -0.764895         0.048638        -0.233615
 H         0.142679        -0.881368        -1.479262
 H         1.356617         1.326403         1.694591
 H         2.071508        -0.324012         1.740159
 H         5.041460         0.702037         1.825718
 H         3.483044         2.975449         1.103748
 H         4.381897         2.267056        -0.353191
 H         1.891157         1.410137        -2.237334
 H         3.260064        -0.580334        -1.473236
