19
Iteration:   711
 C         0.124081        -0.375658        -0.362944
 C         1.342574         0.405379        -0.061167
 C         1.807297         0.867216         1.293157
 C         3.243095         0.835766         0.644676
 O         4.240563         0.169618         1.417457
 C         3.689266         2.134050         0.070162
 O         2.650293         2.445780        -0.882201
 C         2.062457         1.142340        -1.190632
 C         2.759033         0.006791        -0.625157
 H         0.403616        -1.352223         0.150282
 H        -0.698646         0.117566         0.169395
 H        -0.066528        -0.594897        -1.479403
 H         1.323783         1.814687         1.585931
 H         1.794774         0.049016         2.009122
 H         4.835351         0.835875         1.799554
 H         3.645069         3.106946         0.635997
 H         4.683996         1.990281        -0.443654
 H         1.645891         0.908983        -2.189953
 H         3.220765        -0.837130        -1.088417
