19
Iteration:  2670
 C         0.096571        -0.445673        -0.599618
 C         1.440308         0.184248        -0.194833
 C         1.901082         0.634299         1.210445
 C         3.326303         0.796654         0.654289
 O         4.295002         0.376831         1.508712
 C         3.612718         2.217081         0.197437
 O         2.484126         2.541864        -0.630204
 C         1.999628         1.185043        -1.189451
 C         2.838502         0.124773        -0.696375
 H         0.020759        -1.458636        -0.224631
 H        -0.618826         0.161292        -0.025236
 H        -0.209048        -0.319468        -1.645800
 H         1.601032         1.665163         1.671257
 H         2.028825        -0.211186         1.908484
 H         4.203629        -0.591019         1.580534
 H         3.603282         2.923079         1.037446
 H         4.549706         2.201823        -0.469535
 H         1.710185         1.205191        -2.281029
 H         3.440050        -0.544747        -1.249209
