19
Iteration:  4621
 C         0.203866        -0.570650        -0.544789
 C         1.356275         0.375017        -0.402421
 C         1.769599         0.681108         1.147926
 C         3.261217         0.719744         0.702086
 O         4.396358         0.227103         1.430457
 C         3.443529         2.277081         0.416096
 O         2.558593         2.604666        -0.666267
 C         2.128364         1.313054        -1.182750
 C         2.868379         0.100311        -0.656561
 H         0.505403        -1.514758        -0.145880
 H        -0.770106        -0.416361         0.043801
 H         0.063776        -0.825573        -1.582782
 H         1.157491         1.499537         1.405301
 H         1.506788        -0.197088         1.809790
 H         4.180665        -0.679591         1.626237
 H         3.142632         2.764554         1.333182
 H         4.489322         2.441712         0.169052
 H         2.076691         1.379377        -2.226770
 H         3.377168        -0.414699        -1.479151
