19
Iteration:  1491charge 0 multiplicity 1
 C         0.199653        -0.502526        -0.588774
 C         1.318808         0.292343        -0.143874
 C         1.765194         0.709830         1.279864
 C         3.241945         0.860890         0.721659
 O         4.286124         0.172030         1.327908
 C         3.538641         2.360570         0.380386
 O         2.591852         2.474330        -0.794443
 C         2.108478         1.230136        -1.198887
 C         2.876413         0.122995        -0.596388
 H         0.156460        -1.440918         0.036352
 H        -0.809995         0.005710        -0.649449
 H         0.361464        -0.856032        -1.652202
 H         1.334890         1.553570         1.855158
 H         1.751729        -0.183019         1.898054
 H         4.916533        -0.149389         0.694617
 H         3.216122         2.937348         1.244214
 H         4.527697         2.555615         0.049361
 H         1.807007         1.196961        -2.224940
 H         3.476451        -0.767566        -1.097376
