19
Iteration:  4451
 C         0.186322        -0.463491        -0.760140
 C         1.468041         0.281679        -0.267993
 C         1.823097         0.608325         1.229929
 C         3.292583         0.771300         0.658341
 O         4.442199         0.384345         1.560158
 C         3.549790         2.180311         0.330877
 O         2.460999         2.437882        -0.561840
 C         1.986927         1.280690        -1.207122
 C         2.833658         0.209095        -0.763624
 H         0.155630        -1.577609        -0.331623
 H        -0.688287        -0.016431        -0.376208
 H        -0.064753        -0.460054        -1.905175
 H         1.093234         1.483306         1.426427
 H         1.640046        -0.206852         1.928601
 H         4.239708        -0.505370         2.005484
 H         3.364511         2.796229         1.241067
 H         4.586690         2.335993        -0.081965
 H         1.658010         1.253729        -2.208041
 H         3.265461        -0.583639        -1.372127
