19
Iteration:  2825charge 0 multiplicity 1
 C         0.052081        -0.430134        -0.444377
 C         1.486880         0.105953        -0.291883
 C         1.821883         0.734160         1.082098
 C         3.357032         0.793466         0.638069
 O         4.355495         0.201008         1.541156
 C         3.569119         2.308373         0.212851
 O         2.401458         2.502474        -0.619476
 C         2.029211         1.285066        -1.158741
 C         2.990545         0.148931        -0.718801
 H        -0.007718        -1.607443        -0.208975
 H        -0.687729         0.258967         0.087759
 H        -0.225104        -0.502743        -1.585719
 H         1.300948         1.747580         1.323397
 H         1.594283         0.051957         1.904446
 H         3.964199        -0.660507         1.886080
 H         3.669649         3.066817         0.972120
 H         4.616965         2.454444        -0.366021
 H         1.858630         1.276612        -2.223859
 H         3.505465        -0.609828        -1.425358
