19
Iteration:  3669
 C         0.282713        -0.363678        -0.758050
 C         1.425371         0.255735        -0.186135
 C         1.871214         0.579144         1.250976
 C         3.336617         0.773402         0.623615
 O         4.362269         0.316190         1.462665
 C         3.518497         2.235904         0.332423
 O         2.441194         2.505752        -0.650333
 C         1.990192         1.228489        -1.169798
 C         2.836649         0.135199        -0.651605
 H         0.184728        -1.345694        -0.381986
 H        -0.748275         0.119965        -0.566326
 H         0.499168        -0.750423        -1.743955
 H         1.233112         1.500680         1.633393
 H         1.729245        -0.315605         1.934885
 H         4.078229        -0.326999         2.143477
 H         3.280570         2.956016         1.059929
 H         4.469760         2.379323        -0.163423
 H         1.464280         1.332318        -2.129398
 H         3.202658        -0.743151        -1.143249
