19
Iteration:  4422charge 0 multiplicity 1
 C         0.129010        -0.563122        -0.841211
 C         1.424659         0.259361        -0.239370
 C         1.863594         0.600992         1.198219
 C         3.278655         0.779769         0.664111
 O         4.366367         0.335036         1.456260
 C         3.607158         2.269716         0.208192
 O         2.402448         2.601456        -0.497804
 C         2.115161         1.343969        -1.102095
 C         2.836678         0.056963        -0.558499
 H         0.323976        -1.632274        -0.656916
 H        -0.936526        -0.281730        -0.523015
 H        -0.050648        -0.418694        -1.888384
 H         1.244736         1.459220         1.520617
 H         1.673589        -0.209244         1.953811
 H         4.145185        -0.456681         2.000117
 H         3.802160         2.931765         1.066706
 H         4.472484         2.225664        -0.435227
 H         1.973666         1.218712        -2.168902
 H         3.370356        -0.698148        -1.209410
