19
Iteration:  2130charge 0 multiplicity 1
 C         0.126053        -0.466312        -0.700130
 C         1.366701         0.315722        -0.154344
 C         1.883708         0.513284         1.314802
 C         3.321317         0.802473         0.732733
 O         4.454430         0.373326         1.435357
 C         3.620620         2.148826         0.068911
 O         2.423218         2.539049        -0.641497
 C         2.001735         1.274503        -1.129119
 C         2.806224         0.162213        -0.629523
 H         0.132326        -1.590137        -0.621336
 H        -0.885567        -0.091214        -0.351465
 H         0.036320        -0.164296        -1.700311
 H         1.343771         1.238506         1.953130
 H         2.016141        -0.422970         1.803850
 H         3.930640        -0.161957         2.113545
 H         3.768624         2.823302         0.946898
 H         4.641418         2.194949        -0.502218
 H         1.591521         1.300257        -2.175863
 H         3.248151        -0.641498        -1.267333
