19
Iteration:  1690charge 0 multiplicity 1
 C         0.073031        -0.509538        -0.573777
 C         1.399112         0.232093        -0.326979
 C         1.914743         0.683180         1.105868
 C         3.322534         0.747452         0.634754
 O         4.308449         0.235301         1.676421
 C         3.633381         2.199495         0.178860
 O         2.409719         2.485093        -0.535993
 C         2.032566         1.343311        -1.208663
 C         2.866217         0.126849        -0.769697
 H        -0.007747        -1.318203         0.147883
 H        -0.773201         0.174579        -0.314702
 H         0.046174        -0.896671        -1.540361
 H         1.517781         1.621566         1.716006
 H         1.786601        -0.055524         1.924543
 H         5.086398         0.888745         1.613246
 H         3.821232         3.044758         0.938901
 H         4.463350         2.139378        -0.586071
 H         1.723019         1.561296        -2.231621
 H         3.318170        -0.487148        -1.453409
