19
Iteration:   536
 C        -0.053916        -0.290421        -0.336117
 C         1.346102         0.310783        -0.100429
 C         1.860802         0.904189         1.197512
 C         3.373934         0.809063         0.598025
 O         4.290437         0.288247         1.503792
 C         3.738600         2.171899        -0.044473
 O         2.503434         2.411934        -0.788071
 C         2.111837         1.054302        -1.166105
 C         2.847980        -0.020000        -0.558410
 H        -0.254760        -1.031074         0.464020
 H        -0.690127         0.537499        -0.174559
 H        -0.198022        -0.562873        -1.402543
 H         1.361323         1.878324         1.507351
 H         1.675462         0.291854         2.100693
 H         4.472808        -0.657253         1.432058
 H         3.925751         3.060140         0.602653
 H         4.666323         1.824884        -0.760287
 H         1.677988         1.090101        -2.196646
 H         3.336946        -0.831830        -1.166301
