19
Iteration:    75charge 0 multiplicity 1
 C        -0.111141        -0.194242        -0.226763
 C         1.276761         0.426958        -0.005308
 C         1.964533         0.973426         1.284102
 C         3.389325         0.855341         0.636070
 O         4.360254         0.221163         1.432735
 C         3.706310         2.202580        -0.071415
 O         2.626671         2.300805        -1.004732
 C         2.115465         0.993491        -1.248779
 C         2.692502        -0.086937        -0.466263
 H        -0.447916        -0.946253         0.544628
 H        -0.922221         0.527966        -0.105154
 H        -0.112031        -0.602479        -1.263381
 H         1.607755         1.999585         1.693002
 H         1.953360         0.185045         2.087154
 H         4.092633        -0.725722         1.391037
 H         3.593059         3.040892         0.608711
 H         4.692504         2.229713        -0.630953
 H         1.718205         1.015232        -2.200285
 H         3.016862        -1.045625        -0.864817
