19
Iteration:  1001
 C         0.007604        -0.400229        -0.440149
 C         1.283081         0.377697        -0.141312
 C         1.884921         0.585024         1.221804
 C         3.350520         0.807856         0.698596
 O         4.333163         0.233670         1.466370
 C         3.592380         2.298066         0.182675
 O         2.709433         2.440378        -0.892127
 C         2.030500         1.215498        -1.231106
 C         2.717699         0.079840        -0.601485
 H        -0.061203        -1.182859         0.317227
 H        -1.029738         0.069500        -0.292338
 H         0.087625        -0.739910        -1.452601
 H         1.353645         1.249675         1.893795
 H         1.936426        -0.348783         1.750411
 H         5.028564         0.859896         1.710252
 H         3.250184         3.056155         0.934157
 H         4.675597         2.487277        -0.086424
 H         1.751849         1.052703        -2.237223
 H         3.306153        -0.774330        -1.065032
