19
Iteration:  4828
 C         0.218229        -0.427581        -0.699215
 C         1.430970         0.266440        -0.164673
 C         1.823338         0.588614         1.174070
 C         3.283538         0.763392         0.622457
 O         4.323986         0.317159         1.449416
 C         3.509247         2.221828         0.352849
 O         2.463480         2.553051        -0.609302
 C         2.164524         1.307827        -1.210328
 C         2.834587         0.103664        -0.702923
 H         0.210856        -1.354117        -0.081143
 H        -0.752099         0.046965        -0.517456
 H         0.375411        -0.769817        -1.697134
 H         1.376314         1.415566         1.681957
 H         1.710170        -0.233253         1.929175
 H         3.902797        -0.453714         1.931930
 H         3.412385         2.830092         1.241415
 H         4.487330         2.289521        -0.208623
 H         1.578341         1.321335        -2.164573
 H         3.308016        -0.813902        -1.088745
