19
Iteration:  2946
 C         0.094281        -0.434570        -0.507573
 C         1.403530         0.262636        -0.277980
 C         1.830258         0.582013         1.188919
 C         3.314405         0.844678         0.744589
 O         4.385801         0.208530         1.537004
 C         3.522359         2.283247         0.275598
 O         2.452553         2.510962        -0.754471
 C         2.124240         1.277380        -1.230060
 C         2.853959         0.158823        -0.683817
 H         0.101009        -1.312149         0.150168
 H        -0.691923         0.295915        -0.380900
 H        -0.017106        -0.995834        -1.485781
 H         1.475526         1.531034         1.633405
 H         1.774672        -0.302976         1.755064
 H         4.551202        -0.700285         1.277906
 H         3.480034         2.966525         1.074347
 H         4.485001         2.398547        -0.253394
 H         1.610602         1.442816        -2.172349
 H         3.479342        -0.440192        -1.295395
