19
Iteration:  1040
 C         0.179629        -0.377321        -0.345486
 C         1.372375         0.346731        -0.125925
 C         1.744373         0.683906         1.278245
 C         3.262179         0.804407         0.662846
 O         4.380082         0.199279         1.422521
 C         3.428434         2.290012         0.270977
 O         2.735180         2.468293        -0.977885
 C         2.089646         1.237034        -1.204396
 C         2.768123         0.069804        -0.635333
 H         0.360847        -1.379100         0.091441
 H        -0.708339         0.047214         0.023328
 H         0.077746        -0.709056        -1.421689
 H         1.317612         1.691100         1.530014
 H         1.452110        -0.168608         1.949590
 H         4.478901        -0.772857         1.129412
 H         3.062569         2.837991         1.121362
 H         4.427666         2.600838         0.036877
 H         1.755038         1.296020        -2.252280
 H         3.183014        -0.693627        -1.203598
