19
Iteration:  2723charge 0 multiplicity 1
 C         0.040937        -0.429943        -0.481240
 C         1.453590         0.272142        -0.231888
 C         1.841129         0.619409         1.194859
 C         3.295234         0.773869         0.727181
 O         4.394377         0.305342         1.375897
 C         3.464884         2.242598         0.317977
 O         2.527196         2.535810        -0.761681
 C         2.100588         1.251928        -1.210258
 C         2.899147         0.068546        -0.702776
 H        -0.035435        -1.306904         0.148357
 H        -0.891891         0.328029        -0.286883
 H         0.096442        -0.786063        -1.534279
 H         1.283948         1.371983         1.801541
 H         1.870224        -0.272212         1.834028
 H         3.991302        -0.348021         1.968706
 H         3.365085         2.983114         1.161713
 H         4.459779         2.441142        -0.228066
 H         1.787645         1.352378        -2.278797
 H         3.566585        -0.718042        -0.852886
