19
Iteration:  3440
 C         0.184978        -0.562627        -0.650861
 C         1.377401         0.296394        -0.251549
 C         1.806711         0.613760         1.161091
 C         3.350683         0.778921         0.660910
 O         4.397847         0.210867         1.427621
 C         3.536607         2.283317         0.330655
 O         2.411263         2.549506        -0.543639
 C         2.099568         1.337395        -1.185803
 C         2.858045         0.132106        -0.738779
 H         0.133442        -1.583520        -0.270209
 H        -0.833846        -0.138966        -0.308583
 H         0.212613        -0.753718        -1.726154
 H         1.386446         1.460409         1.692676
 H         1.915832        -0.232517         1.771412
 H         4.186608         0.439612         2.358967
 H         3.224040         2.987804         1.156872
 H         4.477007         2.426486        -0.130048
 H         1.897529         1.418582        -2.267926
 H         3.267333        -0.658348        -1.391578
