19
Iteration:  4632
 C         0.257734        -0.586667        -0.550088
 C         1.377740         0.335357        -0.287217
 C         1.660539         0.582079         1.164209
 C         3.207393         0.749485         0.741331
 O         4.368199         0.224300         1.326806
 C         3.466884         2.224171         0.502055
 O         2.579001         2.651892        -0.791052
 C         2.162175         1.352244        -1.208541
 C         2.881058         0.144814        -0.632209
 H         0.530066        -1.448489         0.028205
 H        -0.652682         0.014913        -0.160015
 H        -0.032996        -0.812007        -1.564208
 H         1.267535         1.469703         1.625960
 H         1.487957        -0.332117         1.813920
 H         4.311721        -0.674832         1.611698
 H         3.210785         2.954539         1.248026
 H         4.518638         2.397594         0.283832
 H         1.765567         1.380198        -2.186063
 H         3.657257        -0.495287        -1.100993
