19
Iteration:  3642
 C         0.143531        -0.572739        -0.749982
 C         1.285684         0.297083        -0.213372
 C         1.815267         0.529017         1.350345
 C         3.288959         0.808135         0.686365
 O         4.440547         0.254126         1.411918
 C         3.474380         2.338969         0.353737
 O         2.617483         2.575829        -0.799790
 C         2.105125         1.316090        -1.131020
 C         2.785206         0.193469        -0.569513
 H         0.148171        -1.631192        -0.204599
 H        -0.840877        -0.218961        -0.751160
 H         0.417074        -1.013122        -1.758381
 H         1.259938         1.219961         1.933051
 H         1.812856        -0.445265         1.865758
 H         4.183546        -0.676778         1.670749
 H         3.165643         3.158897         1.081488
 H         4.557352         2.534410         0.124960
 H         1.689895         1.340885        -2.142847
 H         3.285782        -0.374030        -1.395451
