19
Iteration:  2490
 C         0.258175        -0.491805        -0.556499
 C         1.431797         0.363420        -0.144276
 C         1.825721         0.582082         1.309508
 C         3.249972         0.871310         0.691119
 O         4.378617         0.200008         1.262855
 C         3.482616         2.357395         0.367450
 O         2.541613         2.518707        -0.799870
 C         2.076071         1.252026        -1.168449
 C         2.789933         0.081793        -0.637288
 H         0.317988        -1.473586        -0.283288
 H        -0.723197        -0.128522        -0.204602
 H         0.221388        -0.581071        -1.591726
 H         1.313030         1.362935         1.859124
 H         1.545008        -0.338172         1.803090
 H         4.227947        -0.697745         1.648892
 H         3.116796         3.014086         1.155225
 H         4.489437         2.642402        -0.022072
 H         1.546206         1.387408        -2.146101
 H         3.236668        -0.792630        -1.036275
