19
Iteration:  3634charge 0 multiplicity 1
 C         0.166157        -0.619860        -0.698579
 C         1.292287         0.302183        -0.206995
 C         1.746436         0.490786         1.283801
 C         3.323786         0.772230         0.785571
 O         4.423284         0.277454         1.373092
 C         3.487155         2.355610         0.372930
 O         2.662903         2.591841        -0.801531
 C         2.045648         1.340753        -1.172547
 C         2.785446         0.213404        -0.616922
 H         0.223062        -1.371738         0.064545
 H        -0.863059        -0.197673        -0.695721
 H         0.299781        -0.895368        -1.775758
 H         1.147975         1.274471         1.887961
 H         1.741613        -0.472870         1.911463
 H         4.274406        -0.684103         1.486937
 H         3.209439         3.036944         1.138703
 H         4.524749         2.514350         0.170179
 H         1.812992         1.222922        -2.209766
 H         3.472033        -0.502153        -1.157713
