19
Iteration:  2049
 C         0.204806        -0.563703        -0.408954
 C         1.421477         0.296987        -0.216969
 C         1.811811         0.684993         1.263952
 C         3.286541         0.804402         0.700543
 O         4.412657         0.019765         1.346087
 C         3.409672         2.346801         0.372678
 O         2.502859         2.601401        -0.810670
 C         2.100310         1.376455        -1.322663
 C         2.845914         0.226531        -0.679667
 H         0.117431        -1.405865         0.315869
 H        -0.678917         0.031098        -0.243378
 H         0.116883        -1.310673        -1.240258
 H         1.301572         1.556435         1.705801
 H         1.695739        -0.242100         1.930257
 H         4.198601        -0.935066         1.521752
 H         3.198425         3.014604         1.243618
 H         4.527114         2.611443         0.009646
 H         1.768605         1.309531        -2.324427
 H         3.522872        -0.547718        -1.067449
