19
Iteration:  4142charge 0 multiplicity 1
 C         0.116581        -0.461541        -0.772841
 C         1.422567         0.180370        -0.192274
 C         1.859515         0.559576         1.153739
 C         3.264127         0.751178         0.650333
 O         4.391488         0.403666         1.544268
 C         3.626749         2.213139         0.195221
 O         2.395217         2.540667        -0.467341
 C         2.005402         1.283501        -1.128814
 C         2.939317         0.112452        -0.758854
 H        -0.100123        -1.506934        -0.431492
 H        -0.793593         0.222310        -0.622999
 H         0.169774        -0.584744        -1.875357
 H         1.395694         1.524611         1.535368
 H         1.896502        -0.118025         2.088165
 H         4.149180        -0.168749         2.346301
 H         3.761617         2.874082         1.047948
 H         4.560098         2.176026        -0.461478
 H         1.640657         1.480643        -2.128926
 H         3.301368        -0.586574        -1.539954
