19
Iteration:  3999
 C         0.162683        -0.440968        -0.636828
 C         1.489587         0.150055        -0.254279
 C         1.829266         0.606012         1.131906
 C         3.320586         0.802888         0.667759
 O         4.306446         0.332503         1.468772
 C         3.475474         2.208700         0.276565
 O         2.434991         2.494110        -0.554029
 C         2.100293         1.271258        -1.176573
 C         2.942014         0.185392        -0.680316
 H        -0.203836        -1.388180        -0.234994
 H        -0.588730         0.376651        -0.359298
 H         0.227101        -0.621032        -1.692018
 H         1.353598         1.559898         1.390286
 H         1.635298        -0.085563         1.926895
 H         3.889184        -0.203247         2.165868
 H         3.691183         2.885828         1.110260
 H         4.398348         1.919455        -0.404807
 H         1.848348         1.525084        -2.211616
 H         3.428677        -0.511410        -1.324024
