19
Iteration:  3915
 C         0.257462        -0.592971        -0.758091
 C         1.258900         0.245169        -0.152299
 C         1.788702         0.628239         1.298358
 C         3.257901         0.812835         0.768864
 O         4.402670         0.293171         1.383013
 C         3.548943         2.339480         0.447628
 O         2.689308         2.539786        -0.876718
 C         2.016460         1.263921        -1.163677
 C         2.723700         0.160615        -0.565679
 H         0.348455        -1.658921        -0.333109
 H        -0.727309        -0.270058        -0.660093
 H         0.390282        -0.591451        -1.879599
 H         1.256286         1.475064         1.872891
 H         1.669577        -0.317658         1.866134
 H         4.354567        -0.684465         1.306868
 H         3.142148         2.982586         1.279134
 H         4.516717         2.644803         0.250358
 H         1.614701         1.505342        -2.174206
 H         3.124225        -0.609677        -1.194952
