19
Iteration:  2474
 C         0.263134        -0.561917        -0.442428
 C         1.354585         0.386960        -0.184204
 C         1.818632         0.649339         1.264990
 C         3.246855         0.756064         0.717630
 O         4.397566         0.099225         1.301871
 C         3.338432         2.265878         0.340604
 O         2.602623         2.606130        -0.850525
 C         2.063372         1.305518        -1.216341
 C         2.892588         0.262932        -0.650043
 H         0.481404        -1.540405         0.230959
 H        -0.716910        -0.177159        -0.156376
 H         0.162212        -0.912311        -1.589764
 H         1.413089         1.499990         1.861239
 H         1.800958        -0.283139         1.891098
 H         3.997757        -0.771701         1.626819
 H         3.007910         2.945502         1.158140
 H         4.390586         2.507570         0.172107
 H         1.657236         1.293728        -2.237827
 H         3.456602        -0.533453        -1.215749
