19
Iteration:  1583charge 0 multiplicity 1
 C         0.151233        -0.480390        -0.545073
 C         1.365984         0.322159        -0.262275
 C         1.799275         0.527344         1.233532
 C         3.288647         0.807960         0.736131
 O         4.331630         0.228423         1.534425
 C         3.501409         2.283823         0.312070
 O         2.626020         2.519141        -0.839904
 C         2.041273         1.327280        -1.160232
 C         2.841574         0.125735        -0.674095
 H         0.335895        -1.492299        -0.108740
 H        -0.807815        -0.012558        -0.075324
 H        -0.081671        -0.659452        -1.612992
 H         1.314150         1.344602         1.672201
 H         1.633684        -0.459496         1.655323
 H         5.118387         0.446238         0.932885
 H         3.247606         2.925447         1.187352
 H         4.516099         2.398849        -0.052312
 H         1.651302         1.283101        -2.202711
 H         3.257838        -0.618114        -1.249209
