19
Iteration:  2860charge 0 multiplicity 1
 C         0.157094        -0.461491        -0.499251
 C         1.395624         0.322621        -0.251057
 C         1.850570         0.565239         1.221545
 C         3.242516         0.781493         0.665665
 O         4.345032         0.331894         1.486081
 C         3.593280         2.243978         0.206343
 O         2.521171         2.517732        -0.655669
 C         2.058375         1.305471        -1.216419
 C         2.834476         0.113792        -0.753773
 H         0.219958        -1.562391        -0.035280
 H        -0.774359        -0.080467        -0.143693
 H         0.119375        -0.562420        -1.627426
 H         1.506480         1.297536         2.003960
 H         1.911382        -0.451694         1.722131
 H         3.920248        -0.253547         2.175744
 H         3.579160         2.897572         1.125027
 H         4.541373         2.247537        -0.462725
 H         1.845680         1.334833        -2.325987
 H         3.069249        -0.820604        -1.260664
