19
Iteration:   849
 C         0.110891        -0.304323        -0.410813
 C         1.399090         0.283840        -0.106091
 C         1.792815         0.820520         1.232100
 C         3.299412         0.810401         0.656157
 O         4.347434         0.264388         1.391049
 C         3.602182         2.261229         0.153009
 O         2.594512         2.431098        -0.895296
 C         2.034757         1.136911        -1.146171
 C         2.826946        -0.025011        -0.534805
 H         0.013070        -1.354311        -0.033220
 H        -0.783737         0.286479         0.026126
 H        -0.104404        -0.458866        -1.458636
 H         1.345291         1.854153         1.491931
 H         1.805307         0.013611         2.049319
 H         4.265289        -0.717385         1.415188
 H         3.458405         3.055523         0.909616
 H         4.666353         2.156206        -0.205500
 H         1.604812         1.091022        -2.173225
 H         3.250448        -0.773498        -1.142892
