19
Iteration:  2243
 C         0.188573        -0.512387        -0.710583
 C         1.307967         0.272921        -0.146135
 C         1.794168         0.683092         1.261773
 C         3.299301         0.764593         0.656754
 O         4.524136         0.337029         1.466278
 C         3.606922         2.156482         0.118521
 O         2.429132         2.548425        -0.602353
 C         1.920084         1.300643        -1.042421
 C         2.845418         0.113308        -0.647630
 H         0.044580        -1.531222        -0.350844
 H        -0.754503         0.030198        -0.628232
 H         0.356910        -0.514565        -1.896367
 H         1.345227         1.636319         1.543602
 H         1.793285        -0.187474         1.951139
 H         4.519242        -0.618154         1.721718
 H         3.932351         2.961969         0.861658
 H         4.472860         2.180782        -0.637049
 H         1.631848         1.313222        -2.118408
 H         3.234525        -0.691783        -1.204943
