19
Iteration:  4707charge 0 multiplicity 1
 C         0.118228        -0.389915        -0.702911
 C         1.417781         0.234801        -0.311616
 C         1.793094         0.555156         1.158619
 C         3.254608         0.767783         0.702006
 O         4.367620         0.427398         1.450244
 C         3.567319         2.198609         0.288083
 O         2.426904         2.518380        -0.493479
 C         2.132172         1.217523        -1.167383
 C         2.946726         0.116794        -0.683701
 H         0.047795        -1.374421        -0.125873
 H        -0.688651         0.398154        -0.571447
 H         0.124028        -0.578183        -1.756782
 H         1.262239         1.335441         1.725996
 H         1.435398        -0.416748         1.647650
 H         4.359971        -0.473355         1.888938
 H         3.663253         2.808607         1.209164
 H         4.518857         2.095869        -0.330583
 H         1.732661         1.400785        -2.138092
 H         3.453096        -0.646131        -1.311613
