19
Iteration:  2613charge 0 multiplicity 1
 C         0.253813        -0.612347        -0.521308
 C         1.296166         0.415305        -0.115006
 C         1.790007         0.685276         1.301429
 C         3.264845         0.838307         0.678165
 O         4.333291         0.229540         1.215578
 C         3.432629         2.227618         0.362285
 O         2.688684         2.519697        -0.798664
 C         2.157608         1.291231        -1.176427
 C         2.742439         0.150065        -0.658382
 H         0.325712        -1.495336         0.055183
 H        -0.869100        -0.341416        -0.527737
 H         0.486461        -0.962733        -1.507375
 H         1.545619         1.617138         1.918849
 H         1.695294        -0.258743         1.949485
 H         4.216611        -0.525042         1.822551
 H         3.133903         2.953897         1.186044
 H         4.472326         2.634253         0.134686
 H         1.597553         1.280393        -2.090096
 H         3.178380        -0.744351        -1.137560
