19
Iteration:  4638
 C         0.251031        -0.573871        -0.568357
 C         1.425027         0.307010        -0.240005
 C         1.655884         0.544056         1.185666
 C         3.165532         0.785503         0.751590
 O         4.358528         0.228335         1.304150
 C         3.471463         2.247484         0.493130
 O         2.625797         2.621081        -0.782464
 C         2.151018         1.364466        -1.230794
 C         2.891652         0.209689        -0.644507
 H         0.264581        -1.544541         0.099913
 H        -0.590531        -0.040588        -0.204012
 H         0.040546        -0.842741        -1.620850
 H         1.342948         1.410368         1.858155
 H         1.448495        -0.357538         1.751938
 H         4.213711        -0.690797         1.556657
 H         3.062721         2.946588         1.268532
 H         4.514394         2.365660         0.101031
 H         1.667938         1.256938        -2.242107
 H         3.532578        -0.611370        -0.950331
