19
Iteration:  3519charge 0 multiplicity 1
 C         0.177890        -0.600478        -0.771435
 C         1.311496         0.367412        -0.192271
 C         1.789684         0.546562         1.223896
 C         3.362268         0.745828         0.735822
 O         4.510071         0.231879         1.421310
 C         3.542775         2.296045         0.341271
 O         2.491089         2.534292        -0.652608
 C         1.998294         1.316683        -1.179061
 C         2.798587         0.186872        -0.650798
 H         0.085397        -1.617494        -0.237883
 H        -0.877893        -0.261925        -0.775090
 H         0.130265        -0.681062        -1.824386
 H         1.446776         1.387457         1.809710
 H         1.585234        -0.355353         1.760323
 H         4.433334         0.476158         2.394144
 H         3.432219         3.158350         1.123198
 H         4.401187         2.645158        -0.125624
 H         1.789075         1.336901        -2.238957
 H         3.169371        -0.572011        -1.335968
