19
Iteration:  2180charge 0 multiplicity 1
 C         0.169194        -0.538053        -0.362605
 C         1.407892         0.323296        -0.275992
 C         1.811149         0.649764         1.183557
 C         3.269234         0.705515         0.720148
 O         4.458198         0.145272         1.348329
 C         3.352096         2.352399         0.434422
 O         2.555105         2.550876        -0.804590
 C         2.090597         1.287548        -1.260819
 C         2.874715         0.213446        -0.754912
 H         0.191983        -1.312451         0.387236
 H        -0.734306         0.039072        -0.145606
 H        -0.107297        -0.797202        -1.446761
 H         1.568161         1.569225         1.721119
 H         1.734998        -0.214919         1.921561
 H         4.081569        -0.658784         1.720648
 H         2.996553         2.992754         1.250004
 H         4.348073         2.447829         0.175403
 H         1.869227         1.392946        -2.351485
 H         3.526154        -0.439352        -1.213435
