19
Iteration:  4672
 C         0.183395        -0.464597        -0.771023
 C         1.346035         0.323901        -0.193005
 C         1.903181         0.519313         1.218109
 C         3.290432         0.725919         0.644705
 O         4.381557         0.286198         1.526633
 C         3.472932         2.325071         0.373252
 O         2.575559         2.587714        -0.800426
 C         2.019609         1.273263        -1.073806
 C         2.828616         0.141985        -0.642189
 H        -0.088901        -1.492305        -0.253330
 H        -0.783755         0.015116        -0.774738
 H         0.465528        -0.778890        -1.748759
 H         1.581558         1.364749         1.912079
 H         1.760861        -0.504440         1.589054
 H         4.159126        -0.690137         1.571814
 H         3.197524         2.761751         1.386930
 H         4.516833         2.754112         0.163420
 H         1.470854         1.171333        -1.982600
 H         3.261288        -0.627667        -1.219233
