19
Iteration:  1263
 C         0.039727        -0.477632        -0.632784
 C         1.368044         0.303029        -0.192162
 C         1.892436         0.719738         1.191059
 C         3.362524         0.833493         0.683890
 O         4.363967         0.251442         1.438948
 C         3.589603         2.248065         0.130190
 O         2.455544         2.473442        -0.614463
 C         2.035286         1.222117        -1.141587
 C         2.922630         0.073761        -0.627403
 H         0.034611        -1.512023        -0.321320
 H        -0.817756         0.032222        -0.183003
 H        -0.160798        -0.349521        -1.677517
 H         1.514373         1.661757         1.698660
 H         1.690086        -0.036288         1.994693
 H         3.970457        -0.210101         2.263174
 H         3.633613         3.024123         0.913308
 H         4.476188         2.319230        -0.510395
 H         1.969216         1.160474        -2.249734
 H         3.436505        -0.676753        -1.117282
