19
Iteration:  1071
 C         0.009197        -0.443865        -0.511043
 C         1.319038         0.312060        -0.195153
 C         1.871061         0.774642         1.256638
 C         3.301816         0.845318         0.635080
 O         4.362015         0.222833         1.371931
 C         3.617575         2.271096         0.169750
 O         2.545348         2.469338        -0.724822
 C         2.135954         1.160647        -1.212382
 C         2.840148         0.050698        -0.557061
 H         0.044376        -1.443962        -0.092193
 H        -0.911597        -0.266815        -0.044882
 H        -0.122900        -0.392118        -1.604895
 H         1.528300         1.729555         1.636064
 H         1.730067         0.008707         2.065170
 H         4.030512        -0.018354         2.225785
 H         3.588415         2.909641         1.036217
 H         4.563072         2.346841        -0.336667
 H         1.891243         1.169499        -2.301359
 H         3.386353        -0.682876        -1.037945
