19
Iteration:  3270charge 0 multiplicity 1
 C         0.112762        -0.464231        -0.807718
 C         1.304315         0.238097        -0.229170
 C         1.782101         0.645812         1.249211
 C         3.376758         0.772159         0.679553
 O         4.469692         0.370393         1.392872
 C         3.605011         2.232744         0.223449
 O         2.423075         2.518293        -0.517043
 C         2.038783         1.216099        -1.073577
 C         2.901564         0.125088        -0.621424
 H         0.047796        -1.587188        -0.495614
 H        -0.840639         0.029548        -0.588598
 H         0.220375        -0.537178        -1.946486
 H         1.285336         1.496537         1.752100
 H         1.843128        -0.200425         2.038936
 H         4.094516        -0.443287         1.879181
 H         3.610457         3.115270         0.999027
 H         4.502371         2.339593        -0.513157
 H         1.600852         1.233833        -2.087891
 H         3.279503        -0.765187        -1.150623
