19
Iteration:  4302
 C         0.141514        -0.428189        -0.877772
 C         1.350951         0.280637        -0.200107
 C         1.929495         0.598595         1.243587
 C         3.404245         0.797680         0.684406
 O         4.363571         0.306622         1.494128
 C         3.549494         2.299329         0.282315
 O         2.393415         2.463432        -0.581349
 C         1.970971         1.216303        -1.092414
 C         2.922175         0.117788        -0.677195
 H        -0.020504        -1.402090        -0.497772
 H        -0.789447         0.237070        -0.681064
 H         0.245740        -0.552086        -1.937618
 H         1.546432         1.289881         1.939492
 H         1.981144        -0.410515         1.722230
 H         4.101115        -0.463713         2.079188
 H         3.391252         3.071715         1.086191
 H         4.508450         2.549907        -0.241183
 H         1.598306         1.372452        -2.095243
 H         3.478267        -0.514766        -1.388623
