19
Iteration:  4473charge 0 multiplicity 1
 C         0.170555        -0.501733        -0.618362
 C         1.429110         0.325400        -0.240837
 C         1.838235         0.464326         1.138553
 C         3.228148         0.811931         0.684779
 O         4.316312         0.277156         1.479503
 C         3.405064         2.317086         0.328501
 O         2.528458         2.668953        -0.683061
 C         2.120121         1.239590        -1.180420
 C         2.966494         0.081789        -0.663159
 H         0.032308        -1.449612         0.067000
 H        -0.660222         0.115902        -0.421114
 H        -0.088684        -0.669177        -1.722628
 H         1.389722         1.197165         1.907285
 H         1.920816        -0.468425         1.684874
 H         4.181612        -0.651003         1.557742
 H         3.306926         2.904961         1.275903
 H         4.480842         2.372003        -0.016311
 H         1.780625         1.242087        -2.179885
 H         3.627519        -0.497620        -1.348183
