19
Iteration:  2695
 C         0.058653        -0.309073        -0.459205
 C         1.450388         0.249566        -0.311845
 C         1.798216         0.695023         1.094716
 C         3.385948         0.731544         0.671747
 O         4.413517         0.293045         1.517327
 C         3.536851         2.328739         0.191272
 O         2.353278         2.440878        -0.559300
 C         2.084876         1.142844        -1.210324
 C         2.945518         0.036808        -0.714618
 H         0.063292        -1.348614        -0.027319
 H        -0.638248         0.267162        -0.027958
 H        -0.115719        -0.362703        -1.549242
 H         1.348994         1.690783         1.368476
 H         1.623289        -0.127288         1.812606
 H         4.103365        -0.597190         1.874211
 H         3.451854         2.986542         1.012020
 H         4.306524         2.548119        -0.501579
 H         2.009659         1.227541        -2.264149
 H         3.832087        -0.453241        -1.225286
