19
Iteration:  4107charge 0 multiplicity 1
 C         0.107602        -0.423383        -0.581644
 C         1.386236         0.295756        -0.284608
 C         1.864322         0.491989         1.153619
 C         3.335034         0.778837         0.721227
 O         4.353927         0.217967         1.519685
 C         3.469489         2.346438         0.278598
 O         2.413307         2.587384        -0.706311
 C         2.099343         1.240550        -1.192415
 C         3.027601         0.152540        -0.681499
 H         0.112072        -1.430678        -0.192832
 H        -0.843155         0.089663        -0.101221
 H         0.019380        -0.466762        -1.666304
 H         1.433867         1.332773         1.724584
 H         1.867807        -0.523296         1.774980
 H         4.085457        -0.651072         1.951233
 H         3.159907         3.056294         1.050426
 H         4.550419         2.487148         0.037316
 H         1.795063         1.303866        -2.274126
 H         3.449641        -0.587311        -1.341852
