19
Iteration:  3727
 C         0.187384        -0.519932        -0.537140
 C         1.429251         0.251886        -0.295851
 C         1.812666         0.584836         1.148400
 C         3.270395         0.781651         0.629488
 O         4.251671         0.295694         1.555732
 C         3.514284         2.299495         0.345214
 O         2.549530         2.559225        -0.635365
 C         2.074503         1.265571        -1.238002
 C         2.922762         0.150635        -0.729020
 H         0.325128        -1.442590         0.061047
 H        -0.694432        -0.011907        -0.154886
 H        -0.050309        -0.654980        -1.565315
 H         1.151262         1.353610         1.609659
 H         1.667561        -0.396072         1.600279
 H         4.484510        -0.666839         1.518246
 H         3.443305         3.151510         1.105881
 H         4.540480         2.394310        -0.085231
 H         1.774135         1.427653        -2.272501
 H         3.383656        -0.513633        -1.478590
