19
Iteration:  2601
 C         0.251500        -0.576652        -0.519241
 C         1.371755         0.330947        -0.182958
 C         1.830539         0.697036         1.240320
 C         3.233523         0.757730         0.677732
 O         4.402606         0.156796         1.280142
 C         3.450401         2.377502         0.374562
 O         2.658878         2.568654        -0.810790
 C         1.968063         1.268996        -1.167396
 C         2.829181         0.124119        -0.643111
 H         0.269625        -1.303159         0.250132
 H        -0.723300         0.030252        -0.345722
 H         0.267670        -1.034672        -1.477237
 H         1.295927         1.647557         1.545314
 H         1.613832        -0.046160         2.063746
 H         3.999811        -0.520118         1.807677
 H         2.994984         2.872649         1.279720
 H         4.570735         2.507537         0.221074
 H         1.601216         1.339271        -2.156646
 H         3.295448        -0.769513        -1.133833
