19
Iteration:  2712charge 0 multiplicity 1
 C         0.083715        -0.395851        -0.479169
 C         1.417738         0.271131        -0.331304
 C         1.844285         0.644085         1.177445
 C         3.295860         0.816291         0.709382
 O         4.444425         0.257702         1.439289
 C         3.482810         2.226116         0.270055
 O         2.390061         2.489189        -0.703994
 C         2.143912         1.216295        -1.235434
 C         2.974017         0.131242        -0.626029
 H        -0.103789        -1.235203         0.177460
 H        -0.675484         0.477294        -0.108500
 H        -0.324906        -0.642221        -1.483043
 H         1.370327         1.580905         1.526044
 H         1.613277        -0.239044         1.779484
 H         4.226572        -0.495867         2.058115
 H         3.320553         2.971268         1.099703
 H         4.545866         2.284129        -0.169383
 H         1.795920         1.154878        -2.297227
 H         3.358098        -0.634322        -1.235059
