19
Iteration:   999
 C         0.017420        -0.391434        -0.440197
 C         1.283281         0.382491        -0.153039
 C         1.877038         0.591577         1.232739
 C         3.341582         0.793694         0.698165
 O         4.348358         0.236351         1.467848
 C         3.605354         2.293474         0.167681
 O         2.692052         2.446221        -0.881097
 C         2.030589         1.214259        -1.219844
 C         2.731641         0.056903        -0.602063
 H        -0.116352        -1.221140         0.273627
 H        -0.998815         0.107812        -0.306871
 H         0.056673        -0.781220        -1.491074
 H         1.352071         1.336188         1.881148
 H         1.931266        -0.372841         1.728892
 H         4.967431         0.869735         1.787725
 H         3.221713         3.085694         0.882878
 H         4.708739         2.510069        -0.087468
 H         1.692752         1.065312        -2.235375
 H         3.277626        -0.733997        -1.093269
