19
Iteration:  1952
 C         0.079775        -0.367787        -0.539039
 C         1.406623         0.182907        -0.235107
 C         1.833032         0.669376         1.196066
 C         3.338427         0.834334         0.679236
 O         4.376221         0.261824         1.431286
 C         3.544366         2.336624         0.253631
 O         2.389080         2.479020        -0.652599
 C         2.131329         1.202217        -1.167039
 C         2.973732         0.090376        -0.688728
 H        -0.076675        -1.505966        -0.341660
 H        -0.700440         0.070639         0.189589
 H        -0.292233        -0.345938        -1.569678
 H         1.247733         1.536487         1.522894
 H         1.837081        -0.043462         2.032174
 H         4.376771        -0.718903         1.332372
 H         3.467105         3.078135         1.095135
 H         4.370481         2.342943        -0.444991
 H         1.677839         1.207491        -2.144435
 H         3.543070        -0.765233        -1.180295
