19
Iteration:  3156
 C         0.183864        -0.445034        -0.651990
 C         1.376560         0.312145        -0.181511
 C         1.809944         0.662211         1.242143
 C         3.318549         0.746805         0.658951
 O         4.433476         0.289661         1.364010
 C         3.501677         2.276905         0.288416
 O         2.470129         2.523265        -0.659753
 C         2.049978         1.251547        -1.190641
 C         2.836162         0.098017        -0.590049
 H         0.291458        -1.562969        -0.277335
 H        -0.842351        -0.011907        -0.496615
 H         0.304617        -0.565133        -1.745644
 H         1.284823         1.552156         1.814181
 H         1.897696        -0.207502         1.897368
 H         4.180245        -0.583296         1.700431
 H         3.422464         2.909271         1.162253
 H         4.548773         2.363182        -0.232941
 H         1.571764         1.237403        -2.157323
 H         3.343169        -0.877565        -0.900993
