19
Iteration:  2405charge 0 multiplicity 1
 C         0.145638        -0.455391        -0.699024
 C         1.389891         0.284599        -0.196877
 C         1.847629         0.674155         1.208801
 C         3.355076         0.791055         0.709413
 O         4.515424         0.270172         1.508415
 C         3.545587         2.241275         0.061669
 O         2.352616         2.527041        -0.535078
 C         1.994377         1.275737        -1.116537
 C         2.848652         0.121381        -0.672826
 H         0.159987        -1.547707        -0.169623
 H        -0.853114         0.114896        -0.475926
 H         0.282511        -0.548558        -1.790715
 H         1.242848         1.527094         1.725951
 H         1.793944        -0.261501         1.836928
 H         4.128360        -0.585873         1.806102
 H         3.932483         2.918732         0.825063
 H         4.352845         2.023616        -0.623895
 H         1.602660         1.208072        -2.171036
 H         3.327465        -0.705775        -1.125845
