19
Iteration:  3320charge 0 multiplicity 1
 C         0.167143        -0.564249        -0.524416
 C         1.310159         0.328506        -0.306220
 C         1.886335         0.518886         1.210403
 C         3.291260         0.817356         0.694773
 O         4.287783         0.139981         1.404154
 C         3.523145         2.342980         0.383090
 O         2.539435         2.594088        -0.701287
 C         2.072724         1.286973        -1.180245
 C         2.883249         0.146826        -0.748730
 H         0.052393        -1.412561         0.114591
 H        -0.746439         0.074527        -0.400187
 H         0.188845        -0.971351        -1.514783
 H         1.234985         1.178883         1.819555
 H         1.940064        -0.455136         1.608162
 H         4.853228         0.811628         1.825825
 H         3.067362         2.813203         1.261509
 H         4.481990         2.761176         0.054029
 H         1.759552         1.349326        -2.244844
 H         3.700620        -0.342659        -1.182366
