19
Iteration:   972charge 0 multiplicity 1
 C         0.082311        -0.261782        -0.505724
 C         1.414338         0.239065        -0.110091
 C         1.874173         0.766821         1.241452
 C         3.317931         0.747825         0.689264
 O         4.393921         0.301185         1.409374
 C         3.563125         2.086315         0.118627
 O         2.485230         2.486453        -0.739890
 C         2.045399         1.174387        -1.208429
 C         2.819300         0.060977        -0.613528
 H        -0.214411        -1.267349        -0.006302
 H        -0.734383         0.435558        -0.411895
 H         0.082735        -0.680014        -1.535857
 H         1.424596         1.808755         1.328368
 H         1.760369         0.007754         2.086522
 H         4.254538         0.328426         2.340837
 H         3.716134         2.938391         0.781066
 H         4.477777         1.979149        -0.467806
 H         1.725224         0.995805        -2.255727
 H         3.423453        -0.831066        -0.975862
