19
Iteration:   941charge 0 multiplicity 1
 C         0.003697        -0.366385        -0.511775
 C         1.339540         0.293142        -0.137491
 C         1.803114         0.845916         1.187733
 C         3.445875         0.826110         0.594585
 O         4.351748         0.232833         1.535311
 C         3.686647         2.234186         0.043608
 O         2.484115         2.482174        -0.706402
 C         2.054817         1.129435        -1.128660
 C         2.844804         0.019004        -0.533507
 H        -0.003897        -1.330019         0.069779
 H        -0.843334         0.231517        -0.347404
 H        -0.138020        -0.825368        -1.597613
 H         1.172310         1.768285         1.444246
 H         1.858603         0.090421         2.059507
 H         4.478646        -0.707739         1.130848
 H         3.692301         3.127025         0.725195
 H         4.578425         2.353445        -0.666222
 H         1.808472         1.027409        -2.238392
 H         3.261834        -0.866176        -1.070407
