19
Iteration:  4133charge 0 multiplicity 1
 C         0.191166        -0.398170        -0.706589
 C         1.469175         0.141464        -0.223382
 C         1.873204         0.538146         1.210715
 C         3.357448         0.785989         0.639987
 O         4.283586         0.403562         1.508480
 C         3.648342         2.178247         0.227581
 O         2.346880         2.528577        -0.504960
 C         2.000622         1.257322        -1.149565
 C         2.921056         0.159237        -0.787050
 H        -0.191089        -1.423914        -0.440880
 H        -0.539784         0.273456        -0.397892
 H         0.308833        -0.352074        -1.809665
 H         1.444483         1.480864         1.638776
 H         1.775933        -0.307953         1.840523
 H         3.845697        -0.139453         2.236376
 H         3.628673         2.899136         1.041699
 H         4.636144         2.166942        -0.304623
 H         1.598007         1.371968        -2.127486
 H         3.252258        -0.743493        -1.330803
