19
Iteration:  2749charge 0 multiplicity 1
 C         0.147460        -0.576148        -0.608889
 C         1.333197         0.374281        -0.140426
 C         1.888107         0.525301         1.299183
 C         3.297474         0.785984         0.735572
 O         4.378437         0.354817         1.388665
 C         3.512629         2.249752         0.327215
 O         2.738017         2.498377        -0.931414
 C         1.954458         1.359337        -1.078482
 C         2.707155         0.144420        -0.671269
 H        -0.031969        -1.446416         0.094832
 H        -0.685759         0.015622        -0.638947
 H         0.370557        -0.983492        -1.622975
 H         1.380386         1.250224         2.043352
 H         1.984325        -0.397269         1.902302
 H         4.033761        -0.461766         1.807518
 H         3.222892         2.934331         1.108674
 H         4.593084         2.556057         0.050799
 H         1.596048         1.297674        -2.079344
 H         2.975906        -0.677819        -1.408919
