19
Iteration:  4563charge 0 multiplicity 1
 C         0.191304        -0.514948        -0.802382
 C         1.396486         0.256061        -0.243756
 C         1.776165         0.516310         1.252191
 C         3.252709         0.796105         0.757856
 O         4.396908         0.256410         1.531229
 C         3.674019         2.263270         0.134492
 O         2.395015         2.593773        -0.604832
 C         2.028851         1.362173        -1.123573
 C         2.906589         0.176364        -0.585638
 H         0.176630        -1.649114        -0.533935
 H        -0.717043         0.047659        -0.573217
 H         0.138499        -0.397778        -1.886688
 H         1.084993         1.256188         1.705732
 H         1.664862        -0.374413         1.899870
 H         4.147122        -0.557752         2.023805
 H         3.973364         3.128107         0.772786
 H         4.457392         2.087139        -0.648879
 H         1.586883         1.204711        -2.136698
 H         3.482563        -0.519359        -1.167591
