19
Iteration:   597charge 0 multiplicity 1
 C         0.097126        -0.372625        -0.322766
 C         1.349996         0.451642        -0.027245
 C         1.871366         0.793083         1.334958
 C         3.299633         0.810144         0.664605
 O         4.282602         0.149887         1.358248
 C         3.564426         2.261563         0.169057
 O         2.806958         2.376997        -1.098707
 C         1.992781         1.171032        -1.233577
 C         2.661076         0.018949        -0.540621
 H        -0.262128        -0.973075         0.553982
 H        -0.711116         0.370896        -0.604318
 H         0.129149        -1.129602        -1.112490
 H         1.498956         1.629223         1.889849
 H         1.855491        -0.176305         1.827241
 H         4.906852         0.735330         1.777460
 H         3.268842         3.064400         0.914564
 H         4.662003         2.394426         0.037056
 H         1.463244         1.051496        -2.117756
 H         3.103417        -0.927635        -0.932813
