19
Iteration:   622
 C        -0.084246        -0.347107        -0.363354
 C         1.310256         0.432322        -0.087369
 C         1.828240         0.848781         1.338125
 C         3.349178         0.808073         0.718012
 O         4.343109         0.108269         1.395457
 C         3.598910         2.327794         0.082518
 O         2.661206         2.372919        -1.007887
 C         2.110260         1.118408        -1.209850
 C         2.821645         0.027134        -0.475155
 H        -0.245038        -1.261622         0.323758
 H        -0.972446         0.275023        -0.448257
 H        -0.105235        -0.910477        -1.375785
 H         1.514533         1.834298         1.726246
 H         1.647570        -0.018132         2.008848
 H         5.168121         0.160547         0.888682
 H         3.329860         3.159825         0.782311
 H         4.593002         2.539899        -0.065137
 H         1.780757         0.850590        -2.294522
 H         3.390847        -0.837997        -0.851278
