19
Iteration:  3134
 C         0.109730        -0.402122        -0.741241
 C         1.392536         0.216303        -0.206504
 C         1.893208         0.649172         1.257777
 C         3.367602         0.839103         0.696154
 O         4.379437         0.298045         1.526869
 C         3.547831         2.270411         0.171009
 O         2.390874         2.488310        -0.593438
 C         2.031847         1.187096        -1.108195
 C         2.879675         0.082690        -0.615257
 H        -0.132256        -1.476845        -0.321777
 H        -0.700517         0.330662        -0.461566
 H         0.114959        -0.467835        -1.849877
 H         1.405726         1.621517         1.679148
 H         1.884245        -0.189540         1.954767
 H         4.626557        -0.332056         0.759425
 H         3.559026         3.047464         0.930521
 H         4.567517         2.212324        -0.406075
 H         1.803161         1.125051        -2.180650
 H         3.253929        -0.481057        -1.529579
