19
Iteration:  1389
 C         0.076873        -0.306557        -0.667756
 C         1.457260         0.227805        -0.263597
 C         1.858313         0.717559         1.181608
 C         3.340950         0.822276         0.691393
 O         4.404793         0.109836         1.462189
 C         3.566168         2.324077         0.112101
 O         2.296110         2.473231        -0.599000
 C         2.062675         1.201524        -1.111669
 C         2.990563         0.023472        -0.545910
 H        -0.102933        -1.330100        -0.311282
 H        -0.701333         0.254727        -0.182579
 H        -0.070705        -0.424527        -1.792981
 H         1.277791         1.652083         1.410981
 H         1.547428        -0.142339         1.885325
 H         4.598263         0.797458         2.198744
 H         3.574130         3.032058         0.927225
 H         4.468605         2.336386        -0.444577
 H         1.734538         1.022726        -2.162389
 H         3.604776        -0.577923        -1.153129
