19
Iteration:   957charge 0 multiplicity 1
 C         0.066331        -0.341229        -0.530843
 C         1.401016         0.247919        -0.159845
 C         1.828588         0.862293         1.212498
 C         3.310725         0.847799         0.678779
 O         4.379574         0.297624         1.412565
 C         3.689399         2.205812         0.038326
 O         2.424674         2.366632        -0.641282
 C         2.064261         1.122195        -1.174193
 C         2.872216        -0.003589        -0.567975
 H        -0.327485        -1.120307         0.088446
 H        -0.653326         0.541012        -0.341376
 H         0.116975        -0.401873        -1.574307
 H         1.511740         1.802634         1.593517
 H         1.634489         0.232161         2.047230
 H         4.003307        -0.457446         1.923966
 H         3.827525         2.941951         0.837496
 H         4.558599         2.085969        -0.620300
 H         1.642600         1.250759        -2.139203
 H         3.408790        -0.721341        -1.179759
