19
Iteration:  2271
 C         0.149602        -0.465766        -0.732766
 C         1.364440         0.345951        -0.209662
 C         1.877865         0.720494         1.352834
 C         3.290838         0.808683         0.633561
 O         4.410334         0.317453         1.335074
 C         3.581628         2.225794         0.140653
 O         2.409987         2.450926        -0.524091
 C         2.046196         1.217279        -1.113255
 C         2.884928         0.076166        -0.617859
 H         0.141598        -1.496375        -0.260254
 H        -0.916189        -0.146311        -0.500920
 H         0.073631        -0.498496        -1.760704
 H         1.443610         1.670829         1.713659
 H         1.963391        -0.193651         1.916436
 H         4.139216        -0.357275         2.033276
 H         3.664322         2.887058         0.959970
 H         4.389380         2.371053        -0.522133
 H         1.765624         1.376018        -2.121915
 H         3.244861        -0.961989        -0.936603
