19
Iteration:  3568charge 0 multiplicity 1
 C         0.173660        -0.481659        -0.661030
 C         1.468981         0.194927        -0.278507
 C         1.875140         0.583311         1.160622
 C         3.291499         0.883548         0.724027
 O         4.357776         0.198532         1.521968
 C         3.573562         2.303225         0.207655
 O         2.388122         2.524288        -0.577607
 C         2.034615         1.276638        -1.136818
 C         2.913210         0.163271        -0.725480
 H         0.162593        -1.500386        -0.350953
 H        -0.715246        -0.029491        -0.164743
 H        -0.245270        -0.458732        -1.722726
 H         1.255483         1.447625         1.587686
 H         1.795214        -0.260198         1.942586
 H         3.817475        -0.411845         2.074814
 H         3.669183         3.043157         0.936814
 H         4.444272         2.540121        -0.403155
 H         1.696076         1.462046        -2.148571
 H         3.600312        -0.394637        -1.405348
