19
Iteration:  3118charge 0 multiplicity 1
 C         0.059530        -0.402985        -0.665457
 C         1.449405         0.158444        -0.190631
 C         1.851708         0.605770         1.194062
 C         3.317181         0.798835         0.662331
 O         4.341422         0.269418         1.549234
 C         3.616890         2.204651         0.174049
 O         2.380317         2.535188        -0.619693
 C         2.023987         1.230703        -1.130807
 C         2.925409         0.154999        -0.680391
 H        -0.315136        -1.240627        -0.171464
 H        -0.756021         0.301951        -0.381633
 H         0.221170        -0.558775        -1.774994
 H         1.337706         1.499688         1.531716
 H         1.849863        -0.227746         1.968683
 H         5.302464         0.214119         1.220981
 H         3.658975         3.022676         0.962351
 H         4.374648         2.238233        -0.582543
 H         1.559037         1.491530        -2.098101
 H         3.662302        -0.541981        -0.959506
