19
Iteration:  3566charge 0 multiplicity 1
 C         0.182424        -0.469940        -0.659314
 C         1.457709         0.181444        -0.286251
 C         1.867884         0.575207         1.191721
 C         3.275109         0.873154         0.708127
 O         4.350031         0.208543         1.513116
 C         3.588652         2.311535         0.190420
 O         2.385731         2.523616        -0.566306
 C         2.040929         1.270097        -1.127408
 C         2.922127         0.169457        -0.728496
 H         0.155266        -1.555192        -0.350059
 H        -0.664145        -0.048779        -0.214393
 H        -0.171795        -0.378758        -1.712194
 H         1.282120         1.430442         1.584249
 H         1.768608        -0.263945         1.954646
 H         3.799173        -0.322006         2.063197
 H         3.671620         3.057942         0.952552
 H         4.466905         2.443536        -0.398800
 H         1.699193         1.466624        -2.163691
 H         3.584395        -0.393797        -1.388071
