19
Iteration:  1733charge 0 multiplicity 1
 C         0.198332        -0.492678        -0.623922
 C         1.344700         0.311422        -0.132245
 C         1.852259         0.625280         1.299681
 C         3.274985         0.851371         0.754031
 O         4.313661         0.164876         1.221084
 C         3.465066         2.369721         0.300668
 O         2.597478         2.491531        -0.785561
 C         2.125506         1.215037        -1.207938
 C         2.824948         0.113469        -0.579641
 H         0.026855        -1.438542        -0.147739
 H        -0.644874         0.072635        -0.279650
 H         0.038150        -0.555257        -1.634488
 H         1.374517         1.440063         1.868431
 H         1.668367        -0.190046         1.990353
 H         4.503640         0.381134         2.196104
 H         3.144116         3.047772         1.117484
 H         4.530092         2.463958         0.205282
 H         1.755814         1.122399        -2.215416
 H         3.378393        -0.690687        -0.875294
