19
Iteration:  2788charge 0 multiplicity 1
 C         0.195068        -0.506901        -0.580970
 C         1.352881         0.382101        -0.156189
 C         1.823016         0.682623         1.292043
 C         3.288231         0.770805         0.718104
 O         4.362774         0.295540         1.356523
 C         3.517216         2.241488         0.297863
 O         2.579982         2.503389        -0.798990
 C         2.065913         1.305052        -1.148478
 C         2.781310         0.081818        -0.614627
 H         0.343196        -1.410346        -0.029332
 H        -0.950406        -0.215970        -0.353555
 H         0.294230        -0.718880        -1.658088
 H         1.396582         1.483317         1.859560
 H         1.711511        -0.325901         1.695152
 H         4.480117        -0.649913         1.265457
 H         3.253309         3.024119         1.050464
 H         4.500037         2.188471        -0.124817
 H         1.949371         1.258537        -2.269205
 H         3.035951        -0.805745        -1.112892
