19
Iteration:  4362charge 0 multiplicity 1
 C         0.150301        -0.706596        -0.556179
 C         1.332801         0.311947        -0.241092
 C         1.837876         0.636527         1.112146
 C         3.287010         0.793437         0.685443
 O         4.311126         0.222413         1.439347
 C         3.476458         2.346781         0.498294
 O         2.608366         2.574125        -0.649863
 C         2.165898         1.431231        -1.313259
 C         2.833044         0.141350        -0.733426
 H         0.092302        -1.633183         0.221850
 H        -0.864851        -0.312627        -0.314576
 H         0.267076        -1.120005        -1.634865
 H         1.333539         1.509625         1.710126
 H         1.818425        -0.349372         1.653056
 H         4.382590        -0.777546         1.267851
 H         2.983334         2.860389         1.338319
 H         4.508968         2.760800         0.323284
 H         1.817509         1.604152        -2.404164
 H         3.332284        -0.649081        -1.280010
