19
Iteration:  2393charge 0 multiplicity 1
 C         0.155365        -0.396377        -0.764130
 C         1.366925         0.262588        -0.132348
 C         1.868180         0.656663         1.258073
 C         3.387345         0.860927         0.635770
 O         4.455392         0.297153         1.415531
 C         3.639865         2.264088         0.151782
 O         2.344267         2.535687        -0.553488
 C         1.973239         1.166088        -1.131108
 C         2.865378         0.013187        -0.573031
 H        -0.016669        -1.580862        -0.567344
 H        -0.908880         0.088483        -0.543251
 H         0.239147        -0.387379        -1.858930
 H         1.375541         1.544289         1.841152
 H         1.899876        -0.244443         1.947192
 H         4.135987        -0.583643         1.771702
 H         3.579930         3.074389         0.849665
 H         4.411486         2.466684        -0.549871
 H         1.524610         1.360875        -2.158321
 H         3.271901        -0.902014        -0.920418
