19
Iteration:  4893charge 0 multiplicity 1
 C         0.198981        -0.419866        -0.622095
 C         1.406882         0.314106        -0.279493
 C         1.772204         0.509753         1.142248
 C         3.263803         0.761261         0.682131
 O         4.337033         0.400733         1.429167
 C         3.484320         2.190481         0.412525
 O         2.543539         2.477340        -0.651248
 C         2.145633         1.280361        -1.189138
 C         2.841451         0.184108        -0.645940
 H         0.160210        -1.465086        -0.178176
 H        -0.692592         0.146586        -0.450090
 H         0.109685        -0.577030        -1.675522
 H         1.226488         1.307000         1.664230
 H         1.784268        -0.368176         1.829445
 H         4.380223        -0.558292         1.602042
 H         3.314155         2.958224         1.161371
 H         4.487109         2.168235        -0.034754
 H         1.887071         1.243243        -2.265689
 H         3.276219        -0.653390        -1.164060
