19
Iteration:  4014
 C         0.183953        -0.429703        -0.732239
 C         1.416389         0.235066        -0.231755
 C         1.813922         0.563272         1.272170
 C         3.246204         0.815697         0.724829
 O         4.335863         0.278301         1.453225
 C         3.618186         2.287571         0.253254
 O         2.450610         2.566887        -0.654716
 C         2.065981         1.243870        -1.157603
 C         2.904201         0.095518        -0.679020
 H         0.035008        -1.421200        -0.171523
 H        -0.673721         0.132840        -0.504538
 H         0.184376        -0.679249        -1.848967
 H         1.230248         1.313249         1.876110
 H         1.946242        -0.388233         1.820765
 H         3.979251        -0.345252         2.060827
 H         3.376964         3.088701         1.015033
 H         4.571560         2.571118        -0.226314
 H         1.549618         1.189610        -2.129088
 H         3.611581        -0.632067        -1.127359
