19
Iteration:  4842charge 0 multiplicity 1
 C         0.189573        -0.395054        -0.669719
 C         1.456215         0.298718        -0.329479
 C         1.939991         0.644226         1.221277
 C         3.338818         0.778684         0.724771
 O         4.311243         0.264742         1.580995
 C         3.505857         2.253890         0.259148
 O         2.376481         2.464835        -0.574473
 C         2.036563         1.237555        -1.246027
 C         2.926915         0.087169        -0.739463
 H        -0.078747        -1.281136        -0.210944
 H        -0.609272         0.430893        -0.592201
 H         0.079262        -0.558926        -1.803171
 H         1.486212         1.484989         1.771857
 H         1.906985        -0.339316         1.784847
 H         4.033248        -0.558368         1.929805
 H         3.298064         2.876049         1.152474
 H         4.524860         2.556755        -0.156202
 H         1.547927         1.439000        -2.221768
 H         3.461110        -0.504176        -1.461318
