19
Iteration:  1474
 C         0.254210        -0.600890        -0.549320
 C         1.384183         0.418762        -0.138612
 C         1.818480         0.544912         1.303666
 C         3.202067         0.839516         0.692203
 O         4.291271         0.162144         1.435040
 C         3.444259         2.307155         0.305117
 O         2.739116         2.591775        -0.927226
 C         2.041455         1.341871        -1.153528
 C         2.756000         0.137187        -0.597275
 H         0.333659        -1.457163         0.108521
 H        -0.705643        -0.056422        -0.586914
 H         0.321311        -0.930663        -1.581011
 H         1.233646         1.324465         1.831011
 H         1.727463        -0.424053         1.888775
 H         4.784031        -0.371922         0.795560
 H         3.041624         2.992258         1.104784
 H         4.564940         2.446641         0.153044
 H         1.586669         1.306612        -2.153403
 H         3.200669        -0.663291        -1.097892
