19
Iteration:  3671charge 0 multiplicity 1
 C         0.276607        -0.356867        -0.746978
 C         1.442478         0.255632        -0.193093
 C         1.850035         0.575213         1.248491
 C         3.304317         0.787666         0.609772
 O         4.377265         0.313478         1.478298
 C         3.528681         2.225931         0.320499
 O         2.424231         2.491897        -0.639481
 C         2.011361         1.239191        -1.167801
 C         2.852798         0.128113        -0.653406
 H         0.170330        -1.362970        -0.344704
 H        -0.719588         0.122542        -0.543204
 H         0.473070        -0.723906        -1.721389
 H         1.256885         1.495287         1.566207
 H         1.699701        -0.279279         1.912126
 H         4.095040        -0.289902         2.135441
 H         3.268525         2.951005         1.122470
 H         4.481273         2.369480        -0.237953
 H         1.455764         1.352229        -2.133677
 H         3.183854        -0.692384        -1.247074
