19
Iteration:  4722
 C         0.062508        -0.451289        -0.667532
 C         1.412056         0.200751        -0.352660
 C         1.731787         0.532183         1.083212
 C         3.304659         0.787417         0.666351
 O         4.397442         0.342805         1.498100
 C         3.580540         2.237343         0.270388
 O         2.421092         2.555790        -0.518624
 C         2.101712         1.342312        -1.109739
 C         2.983110         0.072569        -0.622685
 H        -0.139305        -1.359981        -0.181625
 H        -0.794669         0.291221        -0.298367
 H        -0.255824        -0.647295        -1.791799
 H         1.176805         1.406796         1.387628
 H         2.050845        -0.219517         1.837836
 H         4.010855        -0.567939         1.728218
 H         3.710959         2.969917         1.039508
 H         4.471251         2.443104        -0.278710
 H         2.137205         1.283432        -2.265750
 H         3.797584        -0.545471        -1.112244
