19
Iteration:  3297charge 0 multiplicity 1
 C         0.235793        -0.449420        -0.685779
 C         1.372490         0.254014        -0.221340
 C         1.885135         0.501610         1.243390
 C         3.283332         0.762786         0.730059
 O         4.403231         0.252678         1.417479
 C         3.474965         2.213958         0.242664
 O         2.494348         2.588632        -0.646212
 C         2.011322         1.308824        -1.128658
 C         2.817189         0.170853        -0.690120
 H         0.068596        -1.368110        -0.213724
 H        -0.679968         0.205318        -0.497787
 H         0.387983        -0.735658        -1.744233
 H         1.353058         1.334631         1.736257
 H         2.000081        -0.370502         1.837800
 H         4.297524         0.603545         2.358635
 H         3.365142         3.023783         0.959733
 H         4.396905         2.150698        -0.352732
 H         1.609355         1.274855        -2.135384
 H         3.257994        -0.647565        -1.234759
