19
Iteration:  4598charge 0 multiplicity 1
 C         0.202523        -0.578759        -0.649188
 C         1.389865         0.279068        -0.318620
 C         1.893208         0.694710         1.155170
 C         3.346740         0.794912         0.644686
 O         4.254268         0.278468         1.549809
 C         3.658171         2.257012         0.370797
 O         2.408876         2.509487        -0.569214
 C         2.062593         1.302699        -1.254490
 C         2.863726         0.166020        -0.750577
 H         0.134411        -1.662292        -0.436333
 H        -0.653456        -0.198692         0.012832
 H        -0.003220        -0.484524        -1.686605
 H         1.276962         1.500276         1.520467
 H         1.927049        -0.184733         1.874538
 H         4.029091        -0.655247         1.733862
 H         3.502185         2.877397         1.248018
 H         4.638430         2.327444        -0.135214
 H         1.546735         1.648482        -2.110875
 H         3.368819        -0.673797        -1.144915
