19
Iteration:  1719
 C         0.137825        -0.428418        -0.563962
 C         1.460186         0.252724        -0.222377
 C         1.780772         0.675205         1.216122
 C         3.223448         0.870532         0.668843
 O         4.321442         0.125927         1.336173
 C         3.545494         2.280001         0.321721
 O         2.482999         2.536179        -0.744754
 C         2.094906         1.215750        -1.154125
 C         2.901106         0.096009        -0.557979
 H         0.145401        -1.435798        -0.076066
 H        -0.721390         0.137323        -0.264065
 H         0.268263        -0.654820        -1.663947
 H         1.251501         1.424890         1.737720
 H         1.989538        -0.231629         1.789730
 H         4.743954         0.715442         1.950799
 H         3.442321         3.017949         1.047875
 H         4.419058         2.389076        -0.314404
 H         1.723307         1.328410        -2.197526
 H         3.516354        -0.748702        -1.039557
