19
Iteration:  1055charge 0 multiplicity 1
 C         0.071674        -0.491483        -0.453900
 C         1.345625         0.386745        -0.189344
 C         1.848907         0.833955         1.197054
 C         3.315182         0.801077         0.729952
 O         4.412849         0.192835         1.367056
 C         3.513558         2.279451         0.321278
 O         2.629074         2.449109        -0.885388
 C         2.041763         1.176932        -1.231369
 C         2.829076         0.084598        -0.583848
 H         0.192568        -1.563488        -0.062375
 H        -0.711470         0.240721         0.021821
 H        -0.250139        -0.547106        -1.509222
 H         1.421887         1.703615         1.754819
 H         1.767859        -0.011415         1.885064
 H         4.037991        -0.660859         1.702107
 H         3.086140         3.056395         1.035865
 H         4.616241         2.551271         0.123932
 H         1.653268         1.088322        -2.227403
 H         3.314791        -0.899772        -0.984061
