19
Iteration:  3693
 C         0.078759        -0.478356        -0.648753
 C         1.406421         0.185902        -0.362916
 C         1.828362         0.639016         1.127432
 C         3.354410         0.759419         0.735581
 O         4.375157         0.340743         1.504562
 C         3.534590         2.219842         0.273748
 O         2.403970         2.597449        -0.511847
 C         2.097241         1.221697        -1.198461
 C         2.958671         0.127013        -0.709856
 H        -0.101479        -1.439845        -0.173753
 H        -0.702083         0.220740        -0.231794
 H        -0.064583        -0.764892        -1.658383
 H         1.261083         1.523250         1.589218
 H         1.614780        -0.251612         1.738510
 H         4.225248        -0.407243         2.158444
 H         3.575912         3.103081         0.947372
 H         4.395826         2.148706        -0.424217
 H         1.948802         1.383616        -2.291394
 H         3.659610        -0.532964        -1.196982
