19
Iteration:  3537
 C         0.239670        -0.489081        -0.772478
 C         1.376321         0.243888        -0.265550
 C         1.864999         0.567846         1.258485
 C         3.231749         0.821656         0.708829
 O         4.428570         0.317791         1.410124
 C         3.555119         2.197501         0.226714
 O         2.433287         2.572093        -0.565738
 C         2.026066         1.304489        -1.093862
 C         2.823598         0.092212        -0.651936
 H         0.287050        -1.480453        -0.431313
 H        -0.803068        -0.083421        -0.445701
 H         0.237011        -0.460307        -1.910232
 H         1.266014         1.365491         1.766461
 H         1.884181        -0.374917         1.818967
 H         4.089409         0.318692         2.339547
 H         3.684541         2.812592         1.124895
 H         4.534596         2.100050        -0.459540
 H         1.607270         1.467144        -2.069122
 H         3.392283        -0.677579        -1.227362
