19
Iteration:  1242
 C         0.120515        -0.395979        -0.608492
 C         1.376403         0.234611        -0.206119
 C         1.813918         0.612453         1.184806
 C         3.274762         0.834860         0.639556
 O         4.387851         0.441135         1.587730
 C         3.724217         2.134127         0.097500
 O         2.460286         2.502416        -0.593440
 C         2.028527         1.255569        -1.142211
 C         2.790224         0.030807        -0.678964
 H         0.161243        -1.450575        -0.414905
 H        -0.739141         0.099824        -0.169246
 H        -0.174465        -0.337646        -1.588710
 H         1.303924         1.389031         1.808798
 H         1.642053        -0.269639         1.836763
 H         4.536242        -0.483947         1.321905
 H         3.963917         2.939423         0.793734
 H         4.450742         2.055415        -0.639575
 H         1.744991         1.264041        -2.216119
 H         3.375972        -0.688438        -1.126405
