19
Iteration:    21charge 0 multiplicity 1
 C        -0.166631        -0.353197        -0.070724
 C         1.131573         0.543258        -0.048269
 C         1.972946         0.892448         1.205853
 C         3.352311         0.808836         0.553684
 O         4.241524         0.220676         1.432308
 C         3.821210         2.190268        -0.011165
 O         2.851125         2.340841        -1.106999
 C         2.049176         1.072923        -1.226909
 C         2.603903        -0.054635        -0.469736
 H        -0.024713        -0.987393         0.856657
 H        -1.112894         0.184179        -0.065638
 H        -0.223453        -1.104903        -0.892319
 H         1.695945         1.739899         2.010086
 H         1.992720        -0.053837         1.838608
 H         4.985046         0.852461         1.417302
 H         3.628842         2.958039         0.720462
 H         4.917905         2.270729        -0.271569
 H         1.874884         1.025289        -2.224038
 H         2.988341        -0.991232        -0.869976
