19
Iteration:  2547
 C         0.136155        -0.392707        -0.550944
 C         1.447081         0.235219        -0.267328
 C         1.873367         0.548956         1.135806
 C         3.308333         0.771826         0.638710
 O         4.395196         0.465808         1.565817
 C         3.597519         2.140221         0.098227
 O         2.360882         2.491197        -0.522411
 C         2.069532         1.285406        -1.165456
 C         2.821670         0.073305        -0.688986
 H        -0.035046        -1.299054        -0.082471
 H        -0.608542         0.365466        -0.176843
 H        -0.090098        -0.353385        -1.558958
 H         1.180506         1.308320         1.604470
 H         1.972432        -0.470633         1.505286
 H         4.372561        -0.497569         1.692659
 H         3.889362         2.768872         0.980038
 H         4.505627         2.208161        -0.553842
 H         1.727428         1.422748        -2.149326
 H         3.321918        -0.622044        -1.409102
