19
Iteration:  2975
 C         0.090486        -0.477303        -0.510061
 C         1.364089         0.205915        -0.288076
 C         1.841816         0.563326         1.096711
 C         3.340233         0.781775         0.604517
 O         4.250924         0.453314         1.524468
 C         3.649336         2.193639         0.150127
 O         2.512016         2.527852        -0.527100
 C         2.117332         1.276580        -1.136862
 C         2.859506         0.101024        -0.733565
 H        -0.047841        -1.412529         0.045851
 H        -0.819921         0.144663        -0.104343
 H        -0.007678        -0.692765        -1.598070
 H         1.478143         1.492050         1.627741
 H         1.728279        -0.328263         1.862063
 H         4.254742        -0.467959         1.922936
 H         3.779814         2.686267         1.155515
 H         4.540669         2.198989        -0.515373
 H         1.642089         1.528834        -2.093165
 H         3.470019        -0.496127        -1.515045
