19
Iteration:   601charge 0 multiplicity 1
 C         0.099196        -0.368782        -0.337187
 C         1.308133         0.439292        -0.021855
 C         1.888779         0.801381         1.285659
 C         3.304548         0.865761         0.667268
 O         4.293831         0.106372         1.363805
 C         3.546923         2.268280         0.191189
 O         2.815050         2.383667        -1.096819
 C         2.005724         1.145394        -1.213975
 C         2.667513         0.026065        -0.511213
 H        -0.276062        -0.943073         0.552011
 H        -0.704164         0.308606        -0.574503
 H         0.016377        -1.102514        -1.181167
 H         1.446512         1.605144         1.951775
 H         1.899495        -0.160153         1.859442
 H         4.977040         0.790593         1.626965
 H         3.358244         3.081958         0.889841
 H         4.549326         2.473903        -0.102983
 H         1.427139         0.946526        -2.190152
 H         3.099834        -0.896544        -0.901046
