19
Iteration:  2919charge 0 multiplicity 1
 C         0.222234        -0.447633        -0.610867
 C         1.380078         0.355337        -0.161356
 C         1.835369         0.700396         1.293178
 C         3.245948         0.837876         0.689825
 O         4.349120         0.208363         1.299439
 C         3.450290         2.274462         0.443165
 O         2.545066         2.532353        -0.872177
 C         2.088069         1.192894        -1.155407
 C         2.835721         0.066698        -0.582805
 H         0.280989        -1.328515         0.035166
 H        -0.717052         0.157114        -0.632826
 H         0.370312        -0.868004        -1.571731
 H         1.497999         1.594419         1.809363
 H         1.966986        -0.265728         1.921341
 H         4.464044        -0.712969         1.108161
 H         3.140577         2.884856         1.371298
 H         4.443856         2.635039         0.200172
 H         1.631688         1.266811        -2.161385
 H         3.299442        -0.885896        -0.975733
