19
Iteration:  1285charge 0 multiplicity 1
 C         0.211859        -0.474905        -0.498178
 C         1.444917         0.282464        -0.156995
 C         1.804989         0.751520         1.179847
 C         3.322164         0.794384         0.703881
 O         4.333797         0.066095         1.399708
 C         3.509179         2.277075         0.296088
 O         2.490553         2.553965        -0.804003
 C         2.059523         1.262594        -1.243380
 C         2.846464         0.079564        -0.647480
 H         0.188041        -1.442931        -0.017046
 H        -0.658118         0.157671        -0.217238
 H         0.101057        -0.546529        -1.564714
 H         1.309879         1.700571         1.588988
 H         1.759294         0.083475         2.088043
 H         4.561122         0.467803         2.230786
 H         3.252539         2.907135         1.173102
 H         4.531232         2.497246        -0.065093
 H         1.409988         1.224151        -2.154406
 H         3.347589        -0.568878        -1.272628
