19
Iteration:  1181charge 0 multiplicity 1
 C         0.122526        -0.474323        -0.439585
 C         1.414410         0.335878        -0.167629
 C         1.791403         0.716487         1.236820
 C         3.248533         0.832619         0.727704
 O         4.351930         0.061036         1.248728
 C         3.425044         2.362815         0.339330
 O         2.633196         2.513704        -0.913243
 C         2.159194         1.237208        -1.189597
 C         2.828626         0.105209        -0.593861
 H         0.080831        -1.338137         0.319225
 H        -0.747979         0.230344        -0.241962
 H         0.112546        -0.994739        -1.488584
 H         1.400796         1.605954         1.719717
 H         1.685355        -0.236587         1.790671
 H         4.433564         0.252808         2.237282
 H         3.049503         2.955781         1.186913
 H         4.518367         2.637203         0.120605
 H         1.713381         1.143417        -2.155833
 H         3.498942        -0.763282        -0.897022
