19
Iteration:  2361
 C         0.101728        -0.455417        -0.599881
 C         1.357699         0.264617        -0.150929
 C         1.793968         0.587515         1.276798
 C         3.321209         0.756864         0.718564
 O         4.476002         0.346958         1.342359
 C         3.464654         2.234595         0.341266
 O         2.560521         2.534732        -0.785604
 C         1.985097         1.263397        -1.173465
 C         2.916575         0.112596        -0.680354
 H         0.101255        -1.477624        -0.099449
 H        -0.818749         0.128093        -0.268556
 H         0.186827        -0.413364        -1.659481
 H         1.357418         1.579160         1.647360
 H         1.708586        -0.269616         1.980899
 H         4.407967        -0.591182         1.613857
 H         3.242387         2.843937         1.221719
 H         4.501430         2.345630         0.125526
 H         1.411296         1.346037        -2.154674
 H         3.412629        -0.679416        -1.169487
