19
Iteration:  2583charge 0 multiplicity 1
 C         0.104924        -0.511373        -0.447880
 C         1.406352         0.224607        -0.226886
 C         1.834575         0.677015         1.135463
 C         3.378779         0.817683         0.686729
 O         4.397048         0.155297         1.437122
 C         3.513868         2.304292         0.306009
 O         2.484348         2.550403        -0.758337
 C         2.053652         1.307328        -1.190826
 C         2.897741         0.178882        -0.697507
 H        -0.126989        -1.436575         0.160475
 H        -0.667571         0.175059        -0.273604
 H         0.100787        -0.950833        -1.485923
 H         1.265773         1.444069         1.769223
 H         1.668199        -0.083622         1.900283
 H         3.972276        -0.615837         1.809781
 H         3.193314         2.865508         1.187408
 H         4.441325         2.575546        -0.165749
 H         1.671800         1.267113        -2.244136
 H         3.487876        -0.426774        -1.368319
