19
Iteration:  4746
 C         0.166680        -0.499574        -0.598628
 C         1.429551         0.314311        -0.261764
 C         1.832562         0.617831         1.139348
 C         3.334375         0.730670         0.743892
 O         4.293630         0.222441         1.542234
 C         3.501890         2.287081         0.309898
 O         2.469370         2.548480        -0.602892
 C         2.042987         1.258328        -1.248034
 C         2.994076         0.208584        -0.769879
 H         0.078997        -1.549977        -0.275462
 H        -0.735531         0.047477        -0.249843
 H        -0.021267        -0.532701        -1.715690
 H         1.440037         1.543335         1.632053
 H         1.708557        -0.302803         1.672740
 H         4.162573        -0.705105         1.604440
 H         3.393784         3.057585         1.098845
 H         4.483398         2.507212        -0.051284
 H         1.677954         1.310701        -2.271166
 H         3.360262        -0.629706        -1.308877
