19
Iteration:  1118charge 0 multiplicity 1
 C         0.084154        -0.491834        -0.562456
 C         1.317110         0.306545        -0.164320
 C         1.916421         0.693071         1.232962
 C         3.358031         0.747661         0.651984
 O         4.249594         0.318836         1.629621
 C         3.702435         2.127758         0.045620
 O         2.491603         2.539966        -0.682433
 C         2.038699         1.263558        -1.129009
 C         2.777668         0.104846        -0.723197
 H        -0.117047        -1.301567         0.078043
 H        -0.802738         0.028515        -0.382223
 H         0.143587        -0.699154        -1.632108
 H         1.490379         1.538291         1.847624
 H         1.842356        -0.246078         1.806144
 H         5.202811         0.299221         1.360096
 H         3.895642         2.963957         0.712265
 H         4.505329         2.015095        -0.649921
 H         1.724023         1.367049        -2.143508
 H         3.292723        -0.640713        -1.423116
