19
Iteration:   652
 C         0.061719        -0.227692        -0.327754
 C         1.431561         0.318379        -0.131291
 C         1.862101         0.802575         1.133960
 C         3.330665         0.750702         0.628765
 O         4.311873         0.407875         1.530249
 C         3.649119         2.075265         0.036268
 O         2.580446         2.371459        -0.798388
 C         1.976218         1.200584        -1.200599
 C         2.772818        -0.049293        -0.581870
 H        -0.093373        -1.237925         0.123772
 H        -0.835392         0.346593         0.022159
 H        -0.168399        -0.346673        -1.373045
 H         1.409355         1.718441         1.443659
 H         1.800392         0.141014         1.993457
 H         4.538798        -0.508517         1.296164
 H         3.684019         2.991335         0.714381
 H         4.774760         2.015881        -0.435152
 H         1.711780         1.026254        -2.249453
 H         3.270849        -0.977344        -0.998143
