19
Iteration:  3735
 C         0.252462        -0.510754        -0.554561
 C         1.474006         0.302621        -0.261965
 C         1.837597         0.552672         1.152743
 C         3.218016         0.743653         0.680731
 O         4.247225         0.283298         1.550926
 C         3.487145         2.279798         0.354248
 O         2.543129         2.587486        -0.722633
 C         2.030013         1.309605        -1.242510
 C         2.895668         0.155309        -0.723406
 H         0.382212        -1.481380        -0.104134
 H        -0.697641         0.004585        -0.101885
 H         0.140175        -0.739203        -1.618254
 H         1.474964         1.540258         1.670662
 H         1.750396        -0.256929         1.920214
 H         4.399789        -0.646819         1.297505
 H         3.410425         2.800215         1.277674
 H         4.515330         2.290532         0.059655
 H         1.662793         1.289833        -2.295844
 H         3.353727        -0.635413        -1.284870
