19
Iteration:  1287charge 0 multiplicity 1
 C         0.229057        -0.482744        -0.483879
 C         1.449209         0.303396        -0.140032
 C         1.799262         0.741948         1.164778
 C         3.320922         0.810085         0.713982
 O         4.309353         0.060990         1.386689
 C         3.497014         2.266460         0.299020
 O         2.515783         2.555569        -0.808298
 C         2.046461         1.274723        -1.235995
 C         2.851584         0.070281        -0.653045
 H         0.213770        -1.445446        -0.010746
 H        -0.639341         0.186965        -0.272566
 H         0.062268        -0.601736        -1.510768
 H         1.313968         1.646469         1.615878
 H         1.721238         0.080499         2.082413
 H         4.677767         0.512418         2.172013
 H         3.197814         2.897760         1.159487
 H         4.457830         2.544528        -0.056292
 H         1.462313         1.203608        -2.157212
 H         3.389073        -0.626217        -1.327524
