19
Iteration:  3995
 C         0.165417        -0.439156        -0.603212
 C         1.469031         0.142529        -0.294311
 C         1.822448         0.644178         1.084810
 C         3.317446         0.748031         0.648971
 O         4.330685         0.344104         1.491963
 C         3.501005         2.176179         0.317648
 O         2.407238         2.494330        -0.536704
 C         2.100030         1.286700        -1.177275
 C         2.963593         0.185439        -0.683931
 H        -0.222910        -1.364213        -0.206641
 H        -0.575671         0.354757        -0.317877
 H         0.212522        -0.634231        -1.691549
 H         1.361805         1.617711         1.264045
 H         1.634194        -0.049881         1.993338
 H         3.813250        -0.150983         2.146390
 H         3.677875         3.019102         0.991580
 H         4.292553         2.011733        -0.397987
 H         1.875074         1.438993        -2.212931
 H         3.439052        -0.503241        -1.421522
