19
Iteration:   879charge 0 multiplicity 1
 C         0.045448        -0.536476        -0.346049
 C         1.230509         0.440971        -0.174827
 C         1.872165         0.762421         1.298182
 C         3.291986         0.805394         0.679065
 O         4.349456         0.150383         1.383278
 C         3.581933         2.279518         0.200868
 O         2.770544         2.469098        -0.988795
 C         2.071282         1.273571        -1.265586
 C         2.707506         0.076013        -0.566736
 H         0.430390        -1.375040         0.259426
 H        -0.910633        -0.154528         0.149495
 H        -0.089097        -1.022093        -1.313788
 H         1.492740         1.665646         1.810502
 H         1.939202        -0.154598         1.869301
 H         4.254524         0.262639         2.383619
 H         3.366776         3.111010         0.908361
 H         4.655555         2.221830         0.149033
 H         1.757398         1.148770        -2.355397
 H         2.958588        -0.748512        -1.154252
