19
Iteration:  3220
 C         0.230856        -0.551908        -0.428805
 C         1.419556         0.291940        -0.260329
 C         1.896143         0.582226         1.181228
 C         3.269977         0.806020         0.640933
 O         4.185831         0.070355         1.494659
 C         3.481565         2.321218         0.348679
 O         2.532703         2.570548        -0.726089
 C         2.076492         1.366395        -1.261773
 C         2.877494         0.193103        -0.712122
 H         0.455701        -1.462509         0.026166
 H        -0.757886        -0.159246        -0.112609
 H         0.078863        -0.807804        -1.488619
 H         1.460904         1.417299         1.792639
 H         1.768810        -0.320781         1.762933
 H         4.928942         0.523710         1.131023
 H         3.328985         3.090117         1.055215
 H         4.501657         2.499628        -0.006335
 H         1.646954         1.450772        -2.240411
 H         3.437943        -0.514832        -1.373065
