19
Iteration:  3175charge 0 multiplicity 1
 C         0.236350        -0.600459        -0.548340
 C         1.333641         0.327085        -0.194771
 C         1.811171         0.608954         1.242243
 C         3.226556         0.772264         0.738145
 O         4.388777         0.233131         1.328625
 C         3.502035         2.266444         0.347395
 O         2.606557         2.557847        -0.761944
 C         2.046381         1.354725        -1.169840
 C         2.806852         0.138692        -0.722786
 H         0.284287        -1.509330        -0.051385
 H        -0.700248        -0.028541        -0.299438
 H         0.014420        -0.842100        -1.626496
 H         1.438446         1.515418         1.787321
 H         1.494072        -0.255896         1.860103
 H         4.406575        -0.025994         2.227068
 H         3.312222         2.886752         1.222777
 H         4.535817         2.451506         0.070481
 H         1.739683         1.354289        -2.223384
 H         3.376745        -0.528312        -1.410816
