19
Iteration:   914charge 0 multiplicity 1
 C         0.140848        -0.478514        -0.380360
 C         1.373197         0.384971        -0.140818
 C         1.871709         0.797670         1.291866
 C         3.275357         0.780207         0.662876
 O         4.211117         0.192772         1.494289
 C         3.617447         2.151427         0.185967
 O         2.664184         2.470481        -0.896318
 C         2.024361         1.234596        -1.229079
 C         2.763838         0.110639        -0.687329
 H         0.237879        -1.286152         0.386299
 H        -0.837135         0.085148        -0.093139
 H        -0.003146        -0.827638        -1.389496
 H         1.445202         1.669954         1.840542
 H         1.687156        -0.010392         2.035884
 H         5.108193         0.503273         1.109536
 H         3.588454         3.081335         0.753454
 H         4.559146         1.987917        -0.336424
 H         1.592136         1.258626        -2.202071
 H         3.192904        -0.766849        -1.176997
