19
Iteration:   358
 C        -0.069703        -0.329901        -0.295286
 C         1.191521         0.457122        -0.077642
 C         1.887099         0.819139         1.219869
 C         3.383512         0.759646         0.571902
 O         4.373359         0.249192         1.529931
 C         3.826570         2.142722        -0.041884
 O         2.693746         2.396804        -0.956178
 C         1.984066         1.201975        -1.142873
 C         2.636619        -0.081644        -0.521245
 H        -0.214832        -1.118417         0.425362
 H        -0.908100         0.258417        -0.179044
 H        -0.010170        -0.829318        -1.224461
 H         1.710864         1.748021         1.746913
 H         1.879664        -0.123882         1.782558
 H         4.633478         1.012333         2.070684
 H         3.834761         3.060820         0.562715
 H         4.655197         2.145531        -0.707336
 H         1.694174         0.931824        -2.235180
 H         2.957007        -0.973939        -1.046018
