19
Iteration:  3947
 C         0.242251        -0.513497        -0.592941
 C         1.384950         0.308873        -0.230391
 C         1.827957         0.542132         1.221247
 C         3.220170         0.807187         0.708278
 O         4.238180         0.281030         1.446617
 C         3.551876         2.255558         0.338453
 O         2.547882         2.591421        -0.800131
 C         2.080134         1.281487        -1.172384
 C         2.892240         0.181898        -0.657660
 H         0.229727        -1.545539        -0.082811
 H        -0.660930        -0.061366        -0.256747
 H         0.241126        -0.822104        -1.668234
 H         1.316997         1.327601         1.877822
 H         1.781384        -0.445650         1.679562
 H         4.201335        -0.653933         1.772961
 H         3.370441         2.837449         1.287838
 H         4.603733         2.295539         0.100584
 H         1.785143         1.294234        -2.268791
 H         3.535657        -0.453243        -1.229882
