19
Iteration:  1063charge 0 multiplicity 1
 C         0.000013        -0.462889        -0.499576
 C         1.306172         0.335583        -0.182509
 C         1.916950         0.810142         1.238420
 C         3.329550         0.842300         0.716345
 O         4.360635         0.212001         1.348948
 C         3.579957         2.270684         0.230008
 O         2.587900         2.466777        -0.781493
 C         2.084654         1.128279        -1.247569
 C         2.828783         0.081540        -0.571157
 H         0.235522        -1.473268        -0.196425
 H        -0.842845        -0.018108         0.025090
 H        -0.214099        -0.636619        -1.577378
 H         1.565908         1.809958         1.643955
 H         1.634319        -0.057031         1.868072
 H         4.106179        -0.380569         2.053268
 H         3.280977         2.929603         1.053488
 H         4.595301         2.542718        -0.080445
 H         1.829388         1.190235        -2.285116
 H         3.464107        -0.751757        -0.864244
