19
Iteration:  1561charge 0 multiplicity 1
 C         0.051745        -0.482827        -0.530583
 C         1.316006         0.251576        -0.252781
 C         1.886719         0.436849         1.214082
 C         3.334545         0.790551         0.627655
 O         4.209100         0.324554         1.649428
 C         3.674275         2.228527         0.182329
 O         2.539814         2.627201        -0.703036
 C         2.035711         1.331101        -1.180857
 C         2.892905         0.098515        -0.741194
 H         0.014716        -1.500530        -0.081390
 H        -0.855900         0.175312        -0.226220
 H        -0.099692        -0.601026        -1.610058
 H         1.378353         1.084460         1.874202
 H         2.081293        -0.573827         1.581771
 H         5.039372         0.707070         1.434548
 H         3.748770         3.056908         0.914090
 H         4.567232         2.068293        -0.424979
 H         1.732439         1.181631        -2.238472
 H         3.479127        -0.589539        -1.245129
