19
Iteration:  2380charge 0 multiplicity 1
 C         0.148889        -0.416047        -0.767354
 C         1.375070         0.211082        -0.124593
 C         1.930400         0.672350         1.299215
 C         3.300278         0.798934         0.655723
 O         4.403197         0.348088         1.322931
 C         3.562892         2.322047         0.219383
 O         2.425413         2.438233        -0.643158
 C         2.054605         1.209660        -1.071383
 C         2.779389         0.059685        -0.562584
 H        -0.044763        -1.553104        -0.531375
 H        -0.715857         0.254802        -0.352774
 H         0.198685        -0.284096        -1.856439
 H         1.494258         1.579035         1.810635
 H         1.957735        -0.174250         2.054449
 H         4.212095        -0.507515         1.686747
 H         3.587670         2.890143         1.131609
 H         4.560740         2.403970        -0.262761
 H         1.693115         1.150684        -2.106646
 H         3.358197        -0.548869        -1.292371
