19
Iteration:  1723charge 0 multiplicity 1
 C         0.164203        -0.446786        -0.576533
 C         1.445824         0.253922        -0.205454
 C         1.802498         0.666599         1.245476
 C         3.205354         0.896517         0.686533
 O         4.321400         0.121833         1.290778
 C         3.521413         2.297349         0.338317
 O         2.513919         2.514402        -0.763809
 C         2.116414         1.224217        -1.159797
 C         2.867581         0.084795        -0.562492
 H         0.138676        -1.424315        -0.138048
 H        -0.708940         0.159257        -0.331204
 H         0.126026        -0.603559        -1.611356
 H         1.312458         1.530630         1.768901
 H         2.010561        -0.288235         1.721209
 H         4.645920         0.706224         2.034928
 H         3.415552         3.105201         1.129878
 H         4.433828         2.448801        -0.230970
 H         1.720199         1.235191        -2.157027
 H         3.437548        -0.692885        -0.881536
