19
Iteration:  4808charge 0 multiplicity 1
 C         0.177698        -0.665156        -0.714125
 C         1.344549         0.321450        -0.295207
 C         1.708867         0.611449         1.232703
 C         3.230526         0.803204         0.793699
 O         4.400489         0.272570         1.332947
 C         3.562039         2.236377         0.363161
 O         2.657121         2.608108        -0.682181
 C         2.024903         1.355821        -1.150547
 C         2.826553         0.144093        -0.581437
 H         0.132232        -1.547473        -0.116425
 H        -0.771551        -0.074328        -0.463338
 H         0.306016        -0.917772        -1.800645
 H         1.243494         1.411313         1.803762
 H         1.582205        -0.349815         1.857012
 H         4.306471        -0.414990         1.964382
 H         3.348655         2.985171         1.130190
 H         4.637130         2.315874        -0.028846
 H         1.740592         1.251535        -2.254990
 H         3.435079        -0.345064        -1.347659
