19
Iteration:  2120
 C         0.178687        -0.420343        -0.721191
 C         1.316046         0.299355        -0.196862
 C         1.788711         0.497661         1.291578
 C         3.350491         0.771946         0.631516
 O         4.515916         0.356610         1.555961
 C         3.648764         2.154364         0.051037
 O         2.390510         2.568291        -0.665531
 C         1.958720         1.327327        -1.078563
 C         2.790779         0.129737        -0.616811
 H         0.280893        -1.520259        -0.529113
 H        -0.651259        -0.065866        -0.069662
 H        -0.032693        -0.462843        -1.745999
 H         1.380774         1.285727         1.932154
 H         1.889082        -0.414513         1.817941
 H         4.389108        -0.424297         2.158583
 H         3.903451         2.939636         0.786831
 H         4.486653         2.060762        -0.701226
 H         1.411099         1.352041        -2.043002
 H         3.431436        -0.575560        -1.240957
