19
Iteration:  4344
 C         0.181410        -0.611349        -0.544203
 C         1.344702         0.333483        -0.424971
 C         1.739188         0.558172         1.159888
 C         3.214895         0.808087         0.699760
 O         4.399727         0.261237         1.381936
 C         3.457065         2.295486         0.451343
 O         2.606280         2.568941        -0.651630
 C         2.091878         1.319372        -1.151969
 C         2.922921         0.233589        -0.687783
 H         0.212451        -1.327012         0.281029
 H        -0.753088        -0.097077        -0.472888
 H         0.205536        -1.245949        -1.412730
 H         1.229509         1.394342         1.651737
 H         1.524074        -0.373638         1.681963
 H         4.302041        -0.742247         1.366425
 H         3.255401         2.860942         1.386581
 H         4.511093         2.340898         0.221949
 H         1.859340         1.208843        -2.199193
 H         3.516467        -0.447366        -1.282082
