19
Iteration:  4986
 C         0.109309        -0.583402        -0.623505
 C         1.357183         0.347493        -0.357929
 C         1.818138         0.708127         1.082196
 C         3.289586         0.759562         0.601768
 O         4.428055         0.225500         1.595914
 C         3.561879         2.271782         0.340157
 O         2.428172         2.514162        -0.533657
 C         2.070074         1.289910        -1.210489
 C         2.965967         0.126163        -0.718512
 H         0.312508        -1.457081        -0.103066
 H        -0.863571        -0.109488        -0.343111
 H        -0.100122        -0.879856        -1.695064
 H         1.275516         1.550336         1.556779
 H         1.684405        -0.258062         1.662003
 H         3.866312        -0.135677         2.344886
 H         3.569519         2.932437         1.239988
 H         4.437069         2.471341        -0.348977
 H         1.906506         1.554322        -2.267853
 H         3.529718        -0.454739        -1.464005
