19
Iteration:  1084
 C         0.097670        -0.428285        -0.516740
 C         1.377911         0.284827        -0.152611
 C         1.781072         0.749771         1.200086
 C         3.326202         0.778983         0.666061
 O         4.352471         0.251986         1.441996
 C         3.685211         2.178017         0.077926
 O         2.474046         2.514791        -0.691200
 C         2.080782         1.231421        -1.124651
 C         2.820480         0.021791        -0.621372
 H         0.109204        -1.475843        -0.361826
 H        -0.580973         0.214520        -0.077951
 H        -0.078693        -0.393475        -1.611643
 H         1.253184         1.655032         1.591461
 H         1.832605        -0.100978         1.926395
 H         4.173581         0.579743         2.392855
 H         3.874250         3.025710         0.702078
 H         4.518168         2.041636        -0.580461
 H         1.756503         1.208090        -2.149113
 H         3.265101        -0.742641        -1.251639
