19
Iteration:  4713
 C         0.087536        -0.409224        -0.686841
 C         1.418696         0.238108        -0.311179
 C         1.744080         0.537296         1.105773
 C         3.297190         0.746366         0.674593
 O         4.337976         0.418925         1.428741
 C         3.570009         2.197442         0.255551
 O         2.442364         2.545975        -0.467706
 C         2.107907         1.251697        -1.131171
 C         3.029057         0.100241        -0.629421
 H        -0.186430        -1.313353        -0.147543
 H        -0.699039         0.267424        -0.392789
 H         0.095347        -0.621262        -1.784125
 H         1.177512         1.361252         1.609849
 H         1.622575        -0.356352         1.695503
 H         4.335083        -0.451873         1.892266
 H         3.592859         2.883853         1.116715
 H         4.476190         2.219567        -0.352875
 H         1.922813         1.389249        -2.217315
 H         3.504377        -0.669385        -1.181077
