19
Iteration:  2781charge 0 multiplicity 1
 C         0.253331        -0.530189        -0.604687
 C         1.274879         0.445717        -0.117424
 C         1.813473         0.610926         1.314444
 C         3.281512         0.777695         0.749229
 O         4.418133         0.303065         1.398628
 C         3.525291         2.220161         0.307880
 O         2.614209         2.537464        -0.856722
 C         2.046602         1.316198        -1.202520
 C         2.715888         0.077168        -0.635648
 H         0.273904        -1.502554         0.004453
 H        -0.749413        -0.120169        -0.460127
 H         0.303175        -0.827739        -1.693905
 H         1.391825         1.463122         1.955048
 H         1.735892        -0.336967         1.863369
 H         4.476199        -0.676319         1.253668
 H         3.330900         2.884617         1.134911
 H         4.598257         2.450379        -0.100201
 H         1.676440         1.154017        -2.187186
 H         2.897177        -0.852618        -1.241270
