19
Iteration:  1477charge 0 multiplicity 1
 C         0.245940        -0.576343        -0.549743
 C         1.386888         0.405607        -0.128096
 C         1.787447         0.550865         1.283328
 C         3.219806         0.827201         0.682710
 O         4.279117         0.170690         1.413036
 C         3.470567         2.309080         0.334659
 O         2.714558         2.588867        -0.919316
 C         2.068437         1.301858        -1.145861
 C         2.757542         0.152146        -0.587401
 H         0.301141        -1.439685         0.097456
 H        -0.706050        -0.094509        -0.541621
 H         0.435693        -0.945551        -1.627770
 H         1.224552         1.402990         1.830179
 H         1.795707        -0.404274         1.941178
 H         4.786697        -0.357057         0.714411
 H         3.064217         3.054060         1.031727
 H         4.557376         2.497908         0.192271
 H         1.591293         1.238862        -2.156298
 H         3.191828        -0.660109        -1.121198
