19
Iteration:  2090charge 0 multiplicity 1
 C         0.136794        -0.569271        -0.568422
 C         1.356624         0.250594        -0.202592
 C         1.879231         0.667612         1.216468
 C         3.300137         0.827838         0.605175
 O         4.327789         0.347192         1.449506
 C         3.653563         2.175447         0.231097
 O         2.462312         2.521860        -0.577610
 C         2.070281         1.301311        -1.180772
 C         2.794965         0.152879        -0.720276
 H         0.152179        -1.526654        -0.050000
 H        -0.707116        -0.051273        -0.126103
 H        -0.031842        -0.593170        -1.733872
 H         1.491471         1.546499         1.752585
 H         1.964520        -0.135968         2.001113
 H         4.514137        -0.575580         1.340319
 H         3.542316         2.820513         1.098288
 H         4.542026         2.202395        -0.381269
 H         1.597339         1.429906        -2.127338
 H         3.370592        -0.607800        -1.351982
