19
Iteration:  1503charge 0 multiplicity 1
 C         0.114307        -0.535706        -0.651789
 C         1.430524         0.324022        -0.237612
 C         1.835233         0.769495         1.252856
 C         3.293648         0.852912         0.703835
 O         4.340610         0.151268         1.411654
 C         3.466284         2.277642         0.294650
 O         2.523243         2.495151        -0.670296
 C         2.096811         1.184794        -1.191042
 C         2.856771         0.122559        -0.566184
 H        -0.177385        -1.432881        -0.007181
 H        -0.751782         0.200371        -0.428519
 H         0.213502        -0.856748        -1.698202
 H         1.366426         1.699920         1.544623
 H         1.684545        -0.018902         1.938004
 H         4.992044         0.093530         0.625459
 H         3.315409         3.065836         1.051171
 H         4.470077         2.484809        -0.034678
 H         1.783561         1.285640        -2.192841
 H         3.536532        -0.734580        -0.973661
