19
Iteration:   774
 C         0.081396        -0.396379        -0.358043
 C         1.359565         0.359367        -0.110976
 C         1.908721         0.766138         1.288911
 C         3.238886         0.822268         0.664808
 O         4.299025         0.308165         1.385615
 C         3.644628         2.154517         0.138357
 O         2.691217         2.457919        -0.925010
 C         2.038736         1.181715        -1.215196
 C         2.744791         0.058258        -0.636011
 H        -0.204775        -0.896729         0.578018
 H        -0.739420         0.256910        -0.421430
 H        -0.052892        -1.094496        -1.164628
 H         1.381125         1.540631         1.789216
 H         1.844623        -0.112412         1.927215
 H         4.047199        -0.348854         2.036255
 H         3.487436         2.848894         0.944630
 H         4.658943         1.901212        -0.189022
 H         1.676802         1.200601        -2.267111
 H         3.243458        -0.814402        -0.944066
