19
Iteration:  3639charge 0 multiplicity 1
 C         0.151261        -0.591063        -0.734118
 C         1.279972         0.292257        -0.216012
 C         1.786298         0.511015         1.335484
 C         3.323384         0.779384         0.726641
 O         4.434205         0.264755         1.395816
 C         3.473903         2.347040         0.359157
 O         2.636349         2.584203        -0.803221
 C         2.090930         1.322793        -1.146424
 C         2.776270         0.210582        -0.585455
 H         0.211254        -1.520093        -0.080247
 H        -0.900013        -0.230201        -0.764238
 H         0.343722        -0.956904        -1.732778
 H         1.185615         1.199493         1.904784
 H         1.782505        -0.403429         1.888706
 H         4.198587        -0.680545         1.590796
 H         3.196192         3.182730         1.091310
 H         4.589664         2.538634         0.178678
 H         1.722873         1.274548        -2.201632
 H         3.342449        -0.358070        -1.293228
