19
Iteration:  3785
 C         0.167430        -0.627244        -0.796398
 C         1.365624         0.310498        -0.146565
 C         1.720696         0.681687         1.281630
 C         3.228594         0.863124         0.728256
 O         4.383838         0.289681         1.282659
 C         3.529561         2.316891         0.382758
 O         2.629817         2.515581        -0.747234
 C         2.129601         1.291004        -1.132674
 C         2.815154         0.131894        -0.488630
 H         0.181913        -1.661632        -0.352991
 H        -0.767581        -0.252069        -0.583203
 H         0.349368        -0.857394        -1.868679
 H         1.044402         1.273527         1.792807
 H         1.771398        -0.297115         1.771770
 H         4.241112        -0.636172         1.399989
 H         3.184807         3.053448         1.196659
 H         4.665685         2.329090         0.170954
 H         1.661529         1.323399        -2.117042
 H         3.353952        -0.677420        -0.982411
