19
Iteration:   989charge 0 multiplicity 1
 C         0.044703        -0.374247        -0.471897
 C         1.322964         0.370843        -0.188935
 C         1.830474         0.664137         1.287691
 C         3.280654         0.764881         0.668803
 O         4.423730         0.235401         1.470532
 C         3.617577         2.236430         0.139684
 O         2.577260         2.479427        -0.871126
 C         2.048624         1.192591        -1.150378
 C         2.823879        -0.018886        -0.606723
 H        -0.151379        -1.269301         0.105678
 H        -0.717325         0.472680        -0.405262
 H        -0.059165        -0.777655        -1.481773
 H         1.524167         1.548162         1.826875
 H         1.737908        -0.265698         1.808370
 H         4.563544         0.959797         2.084792
 H         3.450216         3.019044         0.944676
 H         4.665287         2.394791        -0.279082
 H         1.563338         1.301457        -2.085912
 H         3.165478        -0.775939        -1.317122
