19
Iteration:   322
 C         0.109693        -0.308225        -0.107376
 C         1.372143         0.444105        -0.034350
 C         1.804751         0.893969         1.315635
 C         3.203360         0.824346         0.654739
 O         4.268039         0.168475         1.287015
 C         3.643571         2.220318         0.062066
 O         2.756325         2.325061        -1.076651
 C         2.096378         1.130296        -1.225411
 C         2.742563        -0.027881        -0.585370
 H         0.083088        -1.186684         0.492981
 H        -0.680001         0.385586         0.142828
 H        -0.167285        -0.460494        -1.137431
 H         1.380198         1.893598         1.597477
 H         1.666477         0.367815         2.272607
 H         3.831579        -0.476686         1.860050
 H         3.520406         3.064588         0.792615
 H         4.725488         2.219904        -0.269953
 H         1.738442         1.214056        -2.250080
 H         3.229957        -0.967223        -0.911001
