19
Iteration:  2952
 C         0.080676        -0.446280        -0.521524
 C         1.390473         0.214410        -0.326214
 C         1.847564         0.603850         1.146118
 C         3.325602         0.831096         0.740498
 O         4.364968         0.258049         1.554763
 C         3.604981         2.255506         0.288500
 O         2.444127         2.565097        -0.717194
 C         2.040134         1.297539        -1.223720
 C         2.889626         0.108379        -0.712056
 H         0.006739        -1.246357         0.278671
 H        -0.779734         0.229726        -0.219587
 H        -0.117160        -0.903595        -1.475548
 H         1.255286         1.375412         1.701420
 H         1.987645        -0.269998         1.905633
 H         4.551163        -0.666096         1.376410
 H         3.530966         3.057340         1.106290
 H         4.563395         2.209682        -0.252756
 H         1.706020         1.355717        -2.281254
 H         3.579217        -0.596482        -1.302834
