19
Iteration:  4342
 C         0.190792        -0.599419        -0.558837
 C         1.366145         0.329394        -0.410325
 C         1.732703         0.560996         1.169015
 C         3.202246         0.785857         0.697804
 O         4.398709         0.262006         1.376334
 C         3.461969         2.292980         0.441720
 O         2.596883         2.576550        -0.654858
 C         2.081320         1.331053        -1.149334
 C         2.932409         0.218636        -0.674899
 H         0.159046        -1.332572         0.341522
 H        -0.707069        -0.067889        -0.438434
 H         0.191037        -1.270868        -1.461546
 H         1.190931         1.437923         1.703740
 H         1.517988        -0.394866         1.610816
 H         4.323320        -0.696566         1.408897
 H         3.261932         2.846283         1.368176
 H         4.516947         2.340858         0.200015
 H         1.842991         1.175408        -2.223836
 H         3.546010        -0.392323        -1.302238
