19
Iteration:  4577
 C         0.255831        -0.487228        -0.740710
 C         1.435946         0.191144        -0.205565
 C         1.764180         0.561250         1.159086
 C         3.335780         0.759036         0.696813
 O         4.250146         0.279051         1.545007
 C         3.566699         2.250718         0.101422
 O         2.454313         2.604830        -0.575183
 C         2.035906         1.284522        -1.015388
 C         2.910221         0.191947        -0.685287
 H         0.124211        -1.541876        -0.546122
 H        -0.608656        -0.081578        -0.076444
 H         0.194702        -0.339459        -1.792034
 H         1.453199         1.468388         1.604580
 H         1.739837        -0.339506         1.850739
 H         3.924515        -0.561608         1.840764
 H         3.835388         3.036365         0.791756
 H         4.433726         2.095068        -0.569633
 H         1.800817         1.495782        -2.022654
 H         3.551184        -0.302453        -1.375870
