19
Iteration:   172
 C        -0.038087        -0.286893        -0.075711
 C         1.348785         0.426686        -0.095599
 C         1.851688         0.915059         1.303792
 C         3.277820         0.810049         0.677533
 O         4.279446         0.132519         1.451611
 C         3.650467         2.221853         0.028318
 O         2.793513         2.330929        -1.169070
 C         2.060253         1.122294        -1.270356
 C         2.738212         0.055623        -0.520975
 H        -0.121867        -1.065698         0.768117
 H        -0.814268         0.492348         0.037765
 H        -0.325144        -0.866985        -1.002253
 H         1.587338         1.903284         1.571922
 H         1.712801         0.101903         2.006105
 H         4.704158        -0.493504         0.832379
 H         3.358344         3.040890         0.707931
 H         4.738542         2.349841        -0.196239
 H         1.561646         0.963468        -2.180470
 H         3.148267        -0.939050        -0.708452
