19
Iteration:  4118
 C         0.216297        -0.354766        -0.656419
 C         1.492317         0.242598        -0.238586
 C         1.905993         0.543567         1.148745
 C         3.292035         0.814828         0.640265
 O         4.309878         0.269881         1.545096
 C         3.473401         2.289077         0.242662
 O         2.414763         2.488295        -0.618321
 C         2.038652         1.274161        -1.149046
 C         2.921927         0.090019        -0.710087
 H         0.138840        -1.356835        -0.258212
 H        -0.628122         0.305771        -0.138755
 H        -0.058812        -0.427955        -1.708943
 H         1.291628         1.185795         1.800244
 H         2.049098        -0.481063         1.751997
 H         3.875070        -0.426204         2.076439
 H         3.484893         2.936472         1.132621
 H         4.378128         2.455289        -0.409104
 H         1.523475         1.386587        -2.138292
 H         3.644689        -0.418078        -1.328306
