19
Iteration:  2530charge 0 multiplicity 1
 C         0.014181        -0.407068        -0.677178
 C         1.348359         0.212850        -0.239816
 C         1.825848         0.532459         1.223523
 C         3.372004         0.681533         0.735139
 O         4.529350         0.491927         1.565841
 C         3.618617         2.216609         0.173770
 O         2.439935         2.523143        -0.600011
 C         1.948238         1.267561        -1.141177
 C         2.867149         0.090375        -0.768677
 H         0.059928        -1.531577        -0.280273
 H        -0.827778         0.079428        -0.209505
 H        -0.049432        -0.345569        -1.869943
 H         1.485742         1.479664         1.645434
 H         1.577713        -0.276760         1.986779
 H         4.513372        -0.445297         1.759376
 H         3.823027         2.990440         0.919514
 H         4.453142         2.078205        -0.522431
 H         1.542113         1.328097        -2.198374
 H         3.363408        -0.638252        -1.405043
