19
Iteration:  1270
 C         0.082786        -0.457035        -0.593981
 C         1.378437         0.256810        -0.190258
 C         1.892288         0.748793         1.239900
 C         3.321778         0.815178         0.660386
 O         4.400864         0.167034         1.440887
 C         3.571462         2.269841         0.199974
 O         2.445025         2.500994        -0.680074
 C         2.050122         1.221276        -1.163512
 C         2.893588         0.113779        -0.654735
 H         0.086034        -1.560741        -0.347077
 H        -0.781300         0.090554        -0.185569
 H        -0.181105        -0.528521        -1.739132
 H         1.537643         1.742909         1.556113
 H         1.584426         0.015217         1.972314
 H         3.918414         0.106990         2.313434
 H         3.513086         3.061822         0.957294
 H         4.532174         2.418756        -0.433288
 H         1.893392         1.204909        -2.258460
 H         3.460830        -0.785262        -1.045949
