19
Iteration:   960charge 0 multiplicity 1
 C         0.074711        -0.323547        -0.511975
 C         1.404794         0.242912        -0.159148
 C         1.854713         0.842496         1.208684
 C         3.270034         0.837516         0.692647
 O         4.386365         0.302685         1.401601
 C         3.683565         2.171771         0.038251
 O         2.426919         2.382244        -0.641528
 C         2.062020         1.123849        -1.193557
 C         2.869271         0.012671        -0.560829
 H        -0.357825        -1.205123         0.051941
 H        -0.599714         0.551896        -0.403855
 H         0.151605        -0.397129        -1.601835
 H         1.517850         1.864582         1.550049
 H         1.634921         0.208902         2.114450
 H         4.003446        -0.360110         2.054470
 H         3.740680         2.953727         0.786919
 H         4.580908         2.081559        -0.563714
 H         1.632385         1.273674        -2.170438
 H         3.435562        -0.747030        -1.210791
