19
Iteration:  3895
 C         0.177335        -0.579070        -0.750965
 C         1.301620         0.428178        -0.206646
 C         1.844861         0.685878         1.258811
 C         3.252836         0.793051         0.692767
 O         4.394883         0.329005         1.392539
 C         3.416057         2.257416         0.324300
 O         2.589080         2.502288        -0.702460
 C         2.116692         1.268886        -1.107666
 C         2.839412         0.064155        -0.608930
 H         0.315888        -1.579161        -0.273548
 H        -0.829579        -0.329919        -0.609143
 H         0.264324        -0.696953        -1.887880
 H         1.407269         1.558379         1.797453
 H         1.790964        -0.273165         1.852936
 H         4.363846        -0.664781         1.572587
 H         3.152736         2.874391         1.226845
 H         4.492041         2.421110         0.251969
 H         1.959847         1.271614        -2.244060
 H         3.334072        -0.808883        -1.012745
