19
Iteration:  3301
 C         0.179084        -0.467632        -0.683105
 C         1.406140         0.270741        -0.198007
 C         1.873842         0.489286         1.242139
 C         3.291051         0.761232         0.678321
 O         4.360588         0.234106         1.423624
 C         3.468930         2.241473         0.283191
 O         2.500097         2.596206        -0.669992
 C         2.037793         1.321564        -1.146412
 C         2.872659         0.187646        -0.683304
 H         0.076228        -1.449416        -0.055886
 H        -0.687869         0.070689        -0.471959
 H         0.362742        -0.819354        -1.662098
 H         1.452840         1.392079         1.815475
 H         2.020358        -0.488902         1.778097
 H         4.421862         0.679823         2.256546
 H         3.332459         3.018450         0.999658
 H         4.380055         2.144201        -0.287060
 H         1.567432         1.298382        -2.154543
 H         3.129065        -0.697116        -1.255571
