19
Iteration:   342charge 0 multiplicity 1
 C        -0.049755        -0.358905        -0.220701
 C         1.262950         0.400934        -0.064538
 C         1.956565         0.864474         1.292107
 C         3.329947         0.802413         0.665092
 O         4.349924         0.188008         1.450419
 C         3.688097         2.131869        -0.010450
 O         2.788964         2.423288        -1.082468
 C         1.954775         1.137815        -1.239812
 C         2.668506         0.056070        -0.558435
 H         0.018389        -1.216827         0.491456
 H        -0.988481         0.326953        -0.085270
 H        -0.195529        -0.791644        -1.265558
 H         1.553348         1.841191         1.693151
 H         1.841021         0.074846         2.080784
 H         4.176878         0.457452         2.399021
 H         3.690645         2.858644         0.847970
 H         4.816647         2.049533        -0.194600
 H         1.508241         1.113893        -2.190603
 H         3.012252        -0.833675        -1.105834
