19
Iteration:  2937charge 0 multiplicity 1
 C         0.156514        -0.448116        -0.523067
 C         1.415691         0.355009        -0.184654
 C         1.833629         0.609666         1.224929
 C         3.292769         0.759957         0.686134
 O         4.379591         0.189355         1.477688
 C         3.422273         2.313251         0.245006
 O         2.513585         2.502606        -0.740754
 C         2.117879         1.249990        -1.228856
 C         2.902333         0.170501        -0.644307
 H        -0.082104        -1.314951         0.258551
 H        -0.727236         0.172734        -0.471482
 H         0.209913        -0.753613        -1.585759
 H         1.389498         1.479075         1.754971
 H         1.497505        -0.257581         1.794536
 H         4.382378        -0.657621         1.033117
 H         3.181830         3.047011         1.050902
 H         4.461655         2.580389        -0.130636
 H         1.714829         1.164831        -2.245547
 H         3.373088        -0.569434        -1.212380
