19
Iteration:   732
 C         0.115924        -0.500130        -0.344708
 C         1.300119         0.412147        -0.116176
 C         1.851714         0.977253         1.252590
 C         3.258692         0.820978         0.697640
 O         4.289323         0.043251         1.389394
 C         3.595995         2.260589         0.179065
 O         2.694814         2.425273        -0.967673
 C         2.078517         1.173704        -1.253860
 C         2.733665         0.066549        -0.471850
 H         0.032242        -1.459496         0.274931
 H        -0.740563         0.158995        -0.132234
 H         0.081088        -0.785994        -1.458002
 H         1.751339         1.964796         1.645168
 H         1.688643         0.261875         2.043605
 H         5.074971         0.266372         0.857545
 H         3.161872         3.016516         0.877499
 H         4.658606         2.411167        -0.264999
 H         1.568320         1.091427        -2.250249
 H         3.141183        -0.881252        -0.722865
