19
Iteration:  4157charge 0 multiplicity 1
 C         0.095202        -0.545934        -0.816078
 C         1.312436         0.244720        -0.352318
 C         1.807559         0.632017         1.188049
 C         3.423142         0.780583         0.706313
 O         4.490465         0.377743         1.511454
 C         3.607924         2.175671         0.244207
 O         2.406693         2.553906        -0.519828
 C         2.029547         1.310314        -1.065766
 C         2.804914         0.110631        -0.638285
 H        -0.010202        -1.485491        -0.209508
 H        -0.766526        -0.020708        -0.624774
 H         0.254129        -0.880351        -1.857075
 H         1.383855         1.534811         1.656059
 H         1.560221        -0.226318         1.691681
 H         4.143629        -0.384983         2.001042
 H         3.683637         2.978217         1.033881
 H         4.508416         2.151175        -0.407355
 H         1.761297         1.422310        -2.119411
 H         3.538970        -0.400765        -1.278282
