19
Iteration:  2277charge 0 multiplicity 1
 C         0.131462        -0.489790        -0.656989
 C         1.365341         0.333606        -0.192470
 C         1.862149         0.710580         1.278151
 C         3.323356         0.752328         0.642590
 O         4.422081         0.281582         1.363127
 C         3.585177         2.251695         0.200061
 O         2.396527         2.502602        -0.603856
 C         2.033327         1.199070        -1.119491
 C         2.885964         0.121902        -0.649928
 H         0.043035        -1.513438        -0.328377
 H        -0.830541        -0.032600        -0.422575
 H         0.056324        -0.549353        -1.866869
 H         1.489397         1.594094         1.816971
 H         1.931656        -0.134478         2.039936
 H         4.108367        -0.337365         2.025917
 H         3.494447         2.996299         1.068560
 H         4.561042         2.261026        -0.446564
 H         1.786628         1.450372        -2.182992
 H         3.400211        -0.748196        -0.939306
