19
Iteration:  4460charge 0 multiplicity 1
 C         0.180455        -0.444749        -0.651705
 C         1.443543         0.214422        -0.299887
 C         1.830387         0.536077         1.217921
 C         3.301426         0.740950         0.723579
 O         4.364804         0.347738         1.522733
 C         3.502481         2.231939         0.362294
 O         2.455097         2.521986        -0.671018
 C         2.075193         1.343852        -1.208726
 C         2.874357         0.169890        -0.740874
 H         0.126572        -1.472980        -0.275774
 H        -0.664901         0.082188        -0.274072
 H         0.262406        -0.598923        -1.750293
 H         1.308393         1.413754         1.646510
 H         1.652367        -0.374472         1.757964
 H         4.227314        -0.614171         1.777213
 H         3.311764         2.981773         1.139370
 H         4.506875         2.421126        -0.103268
 H         1.669911         1.471111        -2.213117
 H         3.368286        -0.644030        -1.223690
