19
Iteration:   541charge 0 multiplicity 1
 C        -0.079494        -0.307899        -0.348605
 C         1.342550         0.337349        -0.112460
 C         1.824615         0.860209         1.202513
 C         3.398432         0.834975         0.589430
 O         4.332494         0.309225         1.505339
 C         3.734587         2.205334        -0.050198
 O         2.567466         2.384173        -0.770683
 C         2.112644         1.075485        -1.188754
 C         2.789875        -0.028062        -0.568405
 H        -0.222000        -0.947899         0.524509
 H        -0.807343         0.549260        -0.118418
 H        -0.235042        -0.789817        -1.318838
 H         1.367232         1.790415         1.511499
 H         1.785964         0.178796         2.065819
 H         4.216780        -0.670322         1.536399
 H         3.897723         3.019614         0.647141
 H         4.545222         1.959291        -0.708550
 H         1.730782         1.047790        -2.207071
 H         3.227377        -0.877467        -1.034437
