19
Iteration:  4472charge 0 multiplicity 1
 C         0.174293        -0.498940        -0.618061
 C         1.427074         0.312474        -0.237741
 C         1.832858         0.469966         1.136735
 C         3.235018         0.805507         0.695653
 O         4.319568         0.282693         1.483095
 C         3.409804         2.309778         0.330251
 O         2.521477         2.660400        -0.683003
 C         2.116468         1.252818        -1.186607
 C         2.963704         0.080758        -0.672467
 H         0.046571        -1.436306         0.025165
 H        -0.648102         0.118770        -0.430673
 H        -0.071111        -0.641323        -1.718642
 H         1.431413         1.196484         1.898478
 H         1.890450        -0.439875         1.700904
 H         4.194689        -0.641066         1.580753
 H         3.317260         2.911301         1.262091
 H         4.482598         2.372078        -0.031962
 H         1.763525         1.284522        -2.188381
 H         3.605478        -0.508609        -1.335616
