19
Iteration:  1398
 C         0.055668        -0.326644        -0.604749
 C         1.446857         0.207781        -0.230769
 C         1.765844         0.721209         1.117706
 C         3.319551         0.798732         0.720957
 O         4.396886         0.117706         1.477377
 C         3.515967         2.277685         0.139683
 O         2.356990         2.460377        -0.589826
 C         2.073539         1.172307        -1.153147
 C         3.035877         0.120998        -0.584864
 H        -0.071033        -1.380739        -0.357451
 H        -0.807081         0.273762        -0.191101
 H         0.002359        -0.210908        -1.698707
 H         1.331491         1.728770         1.515495
 H         1.735750        -0.171708         1.911984
 H         4.996113         0.756969         1.984256
 H         3.582545         3.181209         0.787154
 H         4.395844         2.287393        -0.564669
 H         1.921326         1.178870        -2.239944
 H         3.664657        -0.490065        -1.261413
