19
Iteration:  4982charge 0 multiplicity 1
 C         0.113144        -0.582098        -0.596796
 C         1.360682         0.335633        -0.362145
 C         1.790532         0.706725         1.107555
 C         3.289833         0.732226         0.644912
 O         4.425744         0.207574         1.570124
 C         3.535959         2.285013         0.307355
 O         2.436546         2.536449        -0.555051
 C         2.098969         1.324572        -1.235564
 C         2.941680         0.141588        -0.695097
 H         0.387067        -1.570208        -0.109670
 H        -0.872390        -0.150786        -0.324453
 H         0.071310        -0.837758        -1.686092
 H         1.280990         1.528890         1.583501
 H         1.637012        -0.311090         1.535985
 H         3.940109        -0.162027         2.291143
 H         3.532756         2.892523         1.204406
 H         4.548158         2.384297        -0.224417
 H         1.839286         1.501338        -2.278142
 H         3.649907        -0.417146        -1.335398
