19
Iteration:  3682charge 0 multiplicity 1
 C         0.208105        -0.446283        -0.684431
 C         1.460742         0.253612        -0.246407
 C         1.772152         0.610134         1.171052
 C         3.263240         0.776938         0.724854
 O         4.421735         0.325946         1.497862
 C         3.508855         2.226413         0.231960
 O         2.384558         2.496410        -0.576996
 C         2.093609         1.282851        -1.145476
 C         2.913100         0.073936        -0.745231
 H        -0.016866        -1.345854        -0.140303
 H        -0.620504         0.307357        -0.527266
 H         0.178410        -0.447641        -1.743656
 H         1.362504         1.560610         1.645195
 H         1.682129        -0.209269         1.891209
 H         3.985277        -0.270949         2.124801
 H         3.613205         2.822891         1.171996
 H         4.492339         2.361848        -0.269532
 H         1.673400         1.332967        -2.181503
 H         3.492593        -0.518573        -1.440468
