19
Iteration:   235
 C        -0.094935        -0.226510        -0.347168
 C         1.214928         0.374995        -0.073889
 C         1.903896         0.832458         1.349482
 C         3.339913         0.804034         0.674757
 O         4.453032         0.276373         1.534473
 C         3.872891         2.042838        -0.218917
 O         2.567887         2.444411        -0.939191
 C         1.999840         1.110964        -1.156159
 C         2.677923        -0.068222        -0.542182
 H        -0.363534        -0.944827         0.389048
 H        -0.851370         0.519307        -0.264676
 H        -0.083653        -0.689466        -1.314057
 H         1.607999         1.718182         1.935374
 H         1.769433        -0.083018         1.984707
 H         4.408889         0.744231         2.420053
 H         4.268752         2.931215         0.309602
 H         4.537830         1.664908        -0.947370
 H         1.625532         1.034255        -2.123721
 H         3.154309        -0.796771        -1.213777
