19
Iteration:  2515charge 0 multiplicity 1
 C         0.020602        -0.505729        -0.712191
 C         1.349485         0.269114        -0.169903
 C         1.914986         0.613464         1.251749
 C         3.303933         0.808859         0.665003
 O         4.475517         0.411164         1.421296
 C         3.566498         2.171391         0.256688
 O         2.499100         2.519342        -0.693841
 C         2.027762         1.259663        -1.077288
 C         2.824350         0.091947        -0.627406
 H        -0.115189        -1.584668        -0.642269
 H        -0.920162        -0.038441        -0.335172
 H         0.001376        -0.385283        -1.788155
 H         1.396335         1.462720         1.836291
 H         1.841179        -0.290460         1.875137
 H         4.577139        -0.465637         1.800710
 H         3.413912         2.868735         1.109337
 H         4.529780         2.294442        -0.221101
 H         1.558788         1.344034        -2.014254
 H         3.415905        -0.507830        -1.360434
