19
Iteration:   528
 C         0.019052        -0.247647        -0.311599
 C         1.371559         0.260777        -0.097400
 C         1.900899         0.968289         1.198870
 C         3.309629         0.784330         0.668614
 O         4.254210         0.253156         1.519989
 C         3.733328         2.091433        -0.053085
 O         2.448071         2.436650        -0.824130
 C         2.041772         1.086399        -1.155009
 C         2.917467        -0.030316        -0.554993
 H        -0.326570        -1.152065         0.129394
 H        -0.703448         0.593717        -0.155323
 H        -0.120904        -0.439392        -1.391027
 H         1.588244         2.014164         1.318649
 H         1.714985         0.320112         2.046798
 H         4.708730        -0.509685         1.120020
 H         3.979198         2.967287         0.546598
 H         4.633162         1.993106        -0.740433
 H         1.651913         0.998031        -2.242828
 H         3.487574        -0.704445        -1.166040
