19
Iteration:  4057charge 0 multiplicity 1
 C         0.267575        -0.551431        -0.637665
 C         1.364886         0.373022        -0.165970
 C         1.745055         0.554647         1.343079
 C         3.233226         0.743916         0.635844
 O         4.352225         0.340954         1.344622
 C         3.378747         2.274513         0.534835
 O         2.747782         2.516089        -0.877293
 C         2.054970         1.348575        -1.200265
 C         2.784265         0.105631        -0.677719
 H         0.411794        -1.496968         0.002417
 H        -0.671637        -0.174443        -0.440575
 H         0.230642        -0.696184        -1.756791
 H         1.387995         1.444156         1.920412
 H         1.617846        -0.352657         1.857633
 H         4.538054        -0.591131         1.383958
 H         3.083752         2.859753         1.446298
 H         4.508980         2.420714         0.483356
 H         1.535963         1.517373        -2.151577
 H         3.197007        -0.737105        -1.281190
