19
Iteration:  2872
 C         0.164047        -0.523309        -0.578872
 C         1.306367         0.362887        -0.190012
 C         1.848505         0.533164         1.208114
 C         3.303098         0.784567         0.715922
 O         4.388471         0.341479         1.418591
 C         3.549959         2.182483         0.242659
 O         2.605459         2.569069        -0.748378
 C         2.036852         1.309538        -1.185845
 C         2.764157         0.112645        -0.632052
 H         0.254384        -1.559967        -0.044452
 H        -0.703642        -0.002394        -0.277782
 H         0.043484        -0.750744        -1.652164
 H         1.288394         1.338458         1.736884
 H         1.706535        -0.474545         1.736348
 H         4.192706        -0.311432         2.111568
 H         3.510206         3.043093         1.001367
 H         4.664375         2.189253        -0.063713
 H         1.484116         1.502121        -2.162252
 H         3.364596        -0.594146        -1.136807
