19
Iteration:  1932charge 0 multiplicity 1
 C         0.141275        -0.507452        -0.456033
 C         1.378849         0.315511        -0.228442
 C         1.898120         0.702716         1.150932
 C         3.364574         0.754347         0.691070
 O         4.378624         0.217274         1.444135
 C         3.441870         2.233164         0.302667
 O         2.523513         2.555487        -0.776016
 C         2.008664         1.234144        -1.209801
 C         2.892802         0.166786        -0.646625
 H         0.044840        -1.628666        -0.078212
 H        -0.571908         0.118374         0.226370
 H        -0.147307        -0.588725        -1.500041
 H         1.414720         1.643634         1.526606
 H         1.629948        -0.135991         1.761924
 H         4.173067        -0.692381         1.403972
 H         3.057161         2.747948         1.280574
 H         4.511138         2.605703         0.060893
 H         1.805486         1.214533        -2.266536
 H         3.519912        -0.352961        -1.417522
