19
Iteration:   846charge 0 multiplicity 1
 C         0.131425        -0.267184        -0.426571
 C         1.419880         0.273461        -0.120482
 C         1.807062         0.805693         1.214856
 C         3.280105         0.842038         0.666245
 O         4.336777         0.278734         1.404195
 C         3.609418         2.236287         0.140498
 O         2.581233         2.433170        -0.869051
 C         2.033182         1.103396        -1.116347
 C         2.812855        -0.045871        -0.545256
 H         0.029272        -1.278417         0.029709
 H        -0.779925         0.288745         0.000799
 H        -0.156309        -0.405720        -1.487299
 H         1.343662         1.798787         1.476733
 H         1.862019         0.126341         2.109108
 H         4.366058        -0.659016         1.271674
 H         3.463874         2.999471         0.934774
 H         4.613223         2.200051        -0.341584
 H         1.641753         1.067732        -2.179453
 H         3.185471        -0.819680        -1.198247
