19
Iteration:  2381
 C         0.150750        -0.417640        -0.776536
 C         1.366246         0.211443        -0.124774
 C         1.928225         0.670083         1.299054
 C         3.314634         0.801017         0.656664
 O         4.398024         0.345226         1.324920
 C         3.577989         2.331657         0.211813
 O         2.412205         2.439330        -0.636658
 C         2.051751         1.211060        -1.078215
 C         2.787141         0.050204        -0.554433
 H        -0.045934        -1.568603        -0.507849
 H        -0.714109         0.266874        -0.352658
 H         0.220732        -0.242430        -1.843867
 H         1.491982         1.606951         1.810715
 H         1.973007        -0.196258         2.038722
 H         4.219139        -0.500078         1.695366
 H         3.616299         2.871780         1.123787
 H         4.544282         2.405006        -0.257358
 H         1.654876         1.161251        -2.126777
 H         3.332908        -0.567029        -1.256990
