19
Iteration:  1966
 C         0.087489        -0.398059        -0.658175
 C         1.476501         0.249813        -0.198747
 C         1.838561         0.595738         1.202319
 C         3.323357         0.881457         0.672193
 O         4.380826         0.379501         1.437040
 C         3.592399         2.233295         0.124841
 O         2.399137         2.458586        -0.533286
 C         2.043910         1.173792        -1.168499
 C         2.893393         0.052889        -0.605485
 H        -0.042194        -1.475496        -0.298374
 H        -0.585808         0.320539        -0.015823
 H        -0.209486        -0.050726        -1.624596
 H         1.331643         1.419170         1.781684
 H         1.782710        -0.328109         1.734186
 H         4.319454        -0.564645         1.375060
 H         3.694539         3.076063         0.915885
 H         4.570692         2.264574        -0.460160
 H         1.649619         1.282001        -2.189577
 H         3.322573        -0.734626        -1.156509
