19
Iteration:   362charge 0 multiplicity 1
 C        -0.066755        -0.310219        -0.298833
 C         1.222651         0.440921        -0.071265
 C         1.872960         0.843485         1.225158
 C         3.383909         0.738891         0.579650
 O         4.360270         0.269467         1.523031
 C         3.813737         2.132063        -0.069683
 O         2.649985         2.375287        -0.920000
 C         2.038894         1.196376        -1.149162
 C         2.638983        -0.079690        -0.535436
 H        -0.159324        -1.164315         0.453339
 H        -1.027509         0.368160        -0.299363
 H        -0.017494        -0.849141        -1.308056
 H         1.672606         1.736422         1.850954
 H         1.814027        -0.109869         1.734494
 H         4.751977         1.077384         1.950087
 H         3.987601         3.013061         0.561331
 H         4.748929         2.088599        -0.703857
 H         1.615241         1.040881        -2.073578
 H         2.977477        -0.983893        -1.047669
