19
Iteration:  2546
 C         0.137969        -0.391652        -0.557184
 C         1.444161         0.235593        -0.266565
 C         1.864357         0.543463         1.138668
 C         3.310563         0.779298         0.636955
 O         4.405916         0.466752         1.570999
 C         3.593765         2.133605         0.096998
 O         2.365392         2.495623        -0.520901
 C         2.063838         1.279962        -1.164003
 C         2.817864         0.076384        -0.693240
 H        -0.040775        -1.303123        -0.110726
 H        -0.620003         0.372401        -0.172064
 H        -0.106615        -0.361036        -1.562541
 H         1.194692         1.306748         1.573800
 H         1.973324        -0.471225         1.550755
 H         4.421774        -0.517883         1.731721
 H         3.882009         2.785246         0.962753
 H         4.521211         2.204911        -0.552733
 H         1.726970         1.413854        -2.166362
 H         3.293732        -0.617861        -1.408818
