19
Iteration:  1211
 C         0.099580        -0.442390        -0.554653
 C         1.343603         0.345686        -0.164853
 C         1.896545         0.600139         1.228163
 C         3.274521         0.770718         0.650228
 O         4.318575         0.273737         1.576488
 C         3.578849         2.182143         0.237351
 O         2.579174         2.520908        -0.819983
 C         2.022321         1.267673        -1.155122
 C         2.778884         0.083518        -0.727437
 H         0.137711        -1.378880         0.005474
 H        -0.868260        -0.049523        -0.130044
 H         0.088692        -0.546611        -1.626817
 H         1.616108         1.455533         1.834616
 H         1.818160        -0.385871         1.750751
 H         5.104817         0.836195         1.355306
 H         3.497118         2.846977         1.128206
 H         4.590887         2.287422        -0.233771
 H         1.653573         1.178075        -2.179501
 H         3.439053        -0.566210        -1.235653
