19
Iteration:  4112charge 0 multiplicity 1
 C         0.150418        -0.370028        -0.609279
 C         1.426061         0.278610        -0.251232
 C         1.879313         0.495292         1.143947
 C         3.306982         0.800055         0.682543
 O         4.332009         0.225428         1.539126
 C         3.465319         2.334816         0.241951
 O         2.410661         2.543806        -0.665696
 C         2.066412         1.257861        -1.181908
 C         3.002695         0.112157        -0.679695
 H         0.124642        -1.431898        -0.225389
 H        -0.634890         0.096065        -0.146923
 H        -0.015662        -0.503500        -1.699759
 H         1.387028         1.272460         1.766896
 H         2.017452        -0.349800         1.694845
 H         4.076260        -0.538051         2.033420
 H         3.233323         3.014669         1.081521
 H         4.511120         2.417966        -0.116188
 H         1.684383         1.416049        -2.163667
 H         3.546480        -0.520311        -1.418021
