19
Iteration:  3120
 C         0.059187        -0.392057        -0.675883
 C         1.439926         0.144126        -0.186426
 C         1.856991         0.614294         1.193877
 C         3.319586         0.802738         0.672120
 O         4.356738         0.272456         1.542176
 C         3.593962         2.210297         0.179492
 O         2.384053         2.525593        -0.616132
 C         2.019990         1.239791        -1.133375
 C         2.928918         0.155504        -0.669500
 H        -0.276842        -1.296182        -0.206213
 H        -0.820750         0.317695        -0.424196
 H         0.188927        -0.562125        -1.822408
 H         1.279252         1.534413         1.585652
 H         1.918940        -0.174215         2.016097
 H         5.255031         0.096007         1.264200
 H         3.723419         3.010833         0.950404
 H         4.398879         2.234278        -0.625331
 H         1.560315         1.419487        -2.153076
 H         3.669832        -0.566319        -1.018483
