19
Iteration:  1763
 C         0.208538        -0.510353        -0.577909
 C         1.308129         0.413344        -0.140196
 C         1.852628         0.595185         1.231784
 C         3.299834         0.758517         0.709344
 O         4.488158         0.285954         1.402640
 C         3.378199         2.279707         0.370777
 O         2.756963         2.504617        -0.934484
 C         1.978698         1.299880        -1.156342
 C         2.677138         0.107918        -0.641165
 H         0.237445        -1.519639        -0.026618
 H        -0.679090        -0.036836        -0.116193
 H         0.135484        -0.690129        -1.732465
 H         1.395438         1.292633         1.906356
 H         1.701606        -0.394208         1.702947
 H         4.301792        -0.506119         1.925766
 H         2.781099         2.855016         1.041987
 H         4.473773         2.491554         0.378519
 H         1.484176         1.393493        -2.155591
 H         3.201404        -0.773028        -1.046751
