19
Iteration:  2499
 C         0.210097        -0.449984        -0.638174
 C         1.339079         0.262487        -0.138362
 C         1.836485         0.584221         1.304242
 C         3.297698         0.803472         0.663626
 O         4.410239         0.311174         1.293744
 C         3.503947         2.346292         0.325269
 O         2.565323         2.517190        -0.724913
 C         2.005474         1.221294        -1.161337
 C         2.784503         0.094577        -0.610542
 H         0.348313        -1.492825        -0.291596
 H        -0.712061        -0.070848        -0.239200
 H         0.109335        -0.412395        -1.757285
 H         1.424619         1.405375         1.802284
 H         1.909045        -0.350753         1.915306
 H         4.018902        -0.571386         1.577833
 H         3.360324         2.973631         1.205124
 H         4.569572         2.587184        -0.003061
 H         1.813555         1.213816        -2.289778
 H         3.203888        -0.793759        -1.025206
