19
Iteration:  1195charge 0 multiplicity 1
 C         0.117153        -0.466058        -0.466377
 C         1.322247         0.365725        -0.189362
 C         1.885227         0.631331         1.231231
 C         3.329154         0.845793         0.645000
 O         4.276797         0.148867         1.376585
 C         3.512327         2.340780         0.293701
 O         2.655093         2.473885        -0.803382
 C         2.066554         1.209195        -1.232174
 C         2.837165         0.088556        -0.593397
 H         0.092521        -1.414422         0.100496
 H        -0.789898         0.072683        -0.345321
 H         0.011200        -0.727792        -1.550017
 H         1.310437         1.330180         1.910030
 H         1.936509        -0.270031         1.844485
 H         4.746216         0.779329         1.906515
 H         3.112096         3.027578         1.038113
 H         4.509256         2.668120         0.035029
 H         1.664396         1.326838        -2.256947
 H         3.043246        -0.863426        -1.188863
