19
Iteration:  3486charge 0 multiplicity 1
 C         0.303338        -0.530677        -0.550220
 C         1.489843         0.250217        -0.238969
 C         1.835200         0.520240         1.247884
 C         3.199905         0.849778         0.740827
 O         4.225932         0.113015         1.227002
 C         3.400330         2.375463         0.447210
 O         2.563992         2.558040        -0.700904
 C         2.114162         1.306986        -1.191521
 C         2.900923         0.191019        -0.712984
 H         0.041533        -1.374716         0.213200
 H        -0.499756         0.214020        -0.405851
 H         0.325834        -1.048532        -1.491234
 H         1.280358         1.385731         1.624638
 H         1.607930        -0.380822         1.775793
 H         4.492376         0.671014         1.936421
 H         3.036517         2.863788         1.422882
 H         4.294139         2.637892         0.029071
 H         1.771619         1.382480        -2.195045
 H         3.466990        -0.565341        -1.307418
