19
Iteration:  3139
 C         0.132650        -0.428719        -0.746294
 C         1.393978         0.276393        -0.202191
 C         1.897630         0.656120         1.262169
 C         3.338422         0.845021         0.698856
 O         4.385873         0.296426         1.492449
 C         3.585595         2.276340         0.185243
 O         2.382887         2.485882        -0.608985
 C         2.044630         1.160018        -1.092904
 C         2.843589         0.053139        -0.614710
 H        -0.148920        -1.354237        -0.331597
 H        -0.653896         0.200670        -0.363952
 H         0.242756        -0.413223        -1.831127
 H         1.525451         1.545068         1.655988
 H         1.751604        -0.258877         1.864034
 H         4.530246        -0.434431         0.914371
 H         3.399440         3.064848         0.959109
 H         4.483006         2.369036        -0.368975
 H         1.845309         1.286571        -2.152579
 H         3.264374        -0.499772        -1.411845
