19
Iteration:  1241charge 0 multiplicity 1
 C         0.122702        -0.397825        -0.609889
 C         1.384302         0.235940        -0.204518
 C         1.807975         0.602122         1.189867
 C         3.275289         0.831717         0.647526
 O         4.386918         0.441659         1.591852
 C         3.717411         2.132805         0.095382
 O         2.467481         2.506025        -0.597981
 C         2.018172         1.264857        -1.142520
 C         2.787064         0.029856        -0.692424
 H         0.139968        -1.455235        -0.370022
 H        -0.719686         0.088216        -0.147363
 H        -0.165126        -0.311098        -1.611916
 H         1.306984         1.408996         1.807103
 H         1.630464        -0.263510         1.844859
 H         4.600104        -0.443351         1.311320
 H         3.967158         2.927781         0.796435
 H         4.461777         2.042069        -0.651460
 H         1.764006         1.260390        -2.232384
 H         3.366912        -0.719254        -1.102105
