19
Iteration:  2256
 C         0.216419        -0.461730        -0.741265
 C         1.356733         0.283610        -0.139889
 C         1.855213         0.714855         1.220952
 C         3.344191         0.805085         0.708142
 O         4.454401         0.374945         1.350572
 C         3.672453         2.192693         0.131069
 O         2.353892         2.492729        -0.499198
 C         2.029836         1.227841        -1.148567
 C         2.694591         0.026331        -0.549411
 H         0.167313        -1.545782        -0.516428
 H        -0.718992         0.057543        -0.507336
 H         0.446255        -0.436391        -1.938132
 H         1.472764         1.527329         1.843316
 H         1.714006        -0.134310         1.971144
 H         4.177686        -0.415535         1.844261
 H         3.842522         3.018463         0.874791
 H         4.489332         1.940418        -0.589827
 H         1.615717         1.337185        -2.204808
 H         3.204310        -0.606963        -1.225316
