19
Iteration:  4253charge 0 multiplicity 1
 C         0.235104        -0.470488        -0.595401
 C         1.428497         0.301287        -0.250369
 C         1.743081         0.533220         1.134164
 C         3.208636         0.786280         0.658705
 O         4.371055         0.358729         1.437402
 C         3.501398         2.150025         0.345647
 O         2.513335         2.520961        -0.575316
 C         2.098294         1.344609        -1.223529
 C         2.879041         0.188018        -0.683113
 H         0.379855        -1.606261        -0.387968
 H        -0.563604        -0.183658         0.057286
 H         0.027315        -0.500984        -1.706418
 H         1.192378         1.423470         1.665850
 H         1.622361        -0.439642         1.631751
 H         4.203918        -0.550747         1.671987
 H         3.387388         2.787513         1.226695
 H         4.538968         2.160437        -0.052921
 H         1.824477         1.418547        -2.289432
 H         3.488220        -0.484936        -1.304026
