19
Iteration:  2859charge 0 multiplicity 1
 C         0.158747        -0.452432        -0.494323
 C         1.396019         0.314558        -0.252238
 C         1.851870         0.571577         1.226037
 C         3.246561         0.780400         0.658278
 O         4.340011         0.329831         1.492392
 C         3.601955         2.247435         0.212614
 O         2.505143         2.514650        -0.653014
 C         2.063068         1.310263        -1.220309
 C         2.845011         0.112965        -0.761840
 H         0.228499        -1.568619        -0.049910
 H        -0.794293        -0.064762        -0.115982
 H         0.102972        -0.586925        -1.648365
 H         1.506278         1.306517         2.016777
 H         1.917965        -0.433697         1.693505
 H         3.892101        -0.237863         2.154306
 H         3.597315         2.870726         1.115792
 H         4.538532         2.242797        -0.470753
 H         1.852107         1.281310        -2.314547
 H         3.058265        -0.844292        -1.294446
