19
Iteration:  3362charge 0 multiplicity 1
 C         0.277014        -0.525293        -0.536589
 C         1.428878         0.288573        -0.220437
 C         1.769762         0.618761         1.193790
 C         3.254779         0.776847         0.626751
 O         4.299475         0.198763         1.437610
 C         3.412674         2.270894         0.377143
 O         2.513547         2.594289        -0.645277
 C         2.113135         1.285651        -1.254538
 C         2.877081         0.157305        -0.700399
 H         0.414089        -1.504434        -0.081624
 H        -0.752442        -0.095062        -0.164978
 H         0.189593        -0.793291        -1.648856
 H         1.416140         1.523230         1.678657
 H         1.745932        -0.183947         1.889416
 H         4.859961        -0.279002         0.843558
 H         3.154915         2.895071         1.370774
 H         4.554428         2.406844         0.196385
 H         1.689327         1.346900        -2.275082
 H         3.494250        -0.391427        -1.375279
