19
Iteration:  3901charge 0 multiplicity 1
 C         0.176616        -0.618168        -0.790132
 C         1.297182         0.454479        -0.188252
 C         1.819155         0.663942         1.280100
 C         3.288694         0.830181         0.653591
 O         4.392379         0.321103         1.384173
 C         3.432415         2.263932         0.380268
 O         2.662521         2.534537        -0.721625
 C         2.035480         1.249661        -1.152630
 C         2.790400         0.058715        -0.544810
 H         0.314548        -1.652878        -0.413720
 H        -0.922515        -0.352213        -0.577446
 H         0.397974        -0.733305        -1.829999
 H         1.487626         1.544993         1.881803
 H         1.854866        -0.222822         1.873944
 H         4.373259        -0.630360         1.448032
 H         3.100465         2.833631         1.250074
 H         4.544245         2.509641         0.254848
 H         1.834790         0.951745        -2.149404
 H         3.437441        -0.674560        -1.061192
