19
Iteration:   611
 C        -0.024272        -0.352427        -0.362017
 C         1.222266         0.397118        -0.100056
 C         1.894304         0.808713         1.270381
 C         3.277478         0.910775         0.695567
 O         4.344103         0.046954         1.380011
 C         3.571085         2.335735         0.123129
 O         2.762004         2.371919        -1.053938
 C         2.064421         1.087115        -1.151005
 C         2.765498         0.077327        -0.452691
 H        -0.195701        -1.014331         0.568901
 H        -0.911030         0.275848        -0.451852
 H         0.249869        -0.912969        -1.307063
 H         1.467514         1.681337         1.830780
 H         1.977927         0.002792         2.030392
 H         5.223965         0.506470         1.201148
 H         3.167430         3.058730         0.864453
 H         4.516529         2.473383        -0.230537
 H         1.804198         1.023701        -2.266994
 H         3.133336        -0.897173        -0.811096
