19
Iteration:  2434charge 0 multiplicity 1
 C         0.158469        -0.617350        -0.453443
 C         1.383768         0.254313        -0.262147
 C         1.848143         0.632829         1.142086
 C         3.278493         0.794396         0.575664
 O         4.292841         0.332230         1.437440
 C         3.618782         2.222160         0.255492
 O         2.537010         2.592638        -0.567959
 C         2.001671         1.352404        -1.147254
 C         2.861949         0.153210        -0.784149
 H         0.254294        -1.358362         0.311037
 H        -0.783805        -0.084069        -0.253815
 H         0.161846        -1.035267        -1.416562
 H         1.331822         1.476942         1.582991
 H         1.815193        -0.267641         1.770825
 H         4.095097        -0.571673         1.632195
 H         3.721352         2.698701         1.217382
 H         4.644809         2.174788        -0.217395
 H         1.623864         1.383392        -2.203974
 H         3.420642        -0.621769        -1.314036
