19
Iteration:  1294charge 0 multiplicity 1
 C         0.255427        -0.489554        -0.447203
 C         1.432658         0.336157        -0.177122
 C         1.815857         0.721901         1.209035
 C         3.295425         0.835938         0.704632
 O         4.245719         0.058412         1.358533
 C         3.452614         2.266305         0.302168
 O         2.595525         2.542492        -0.811047
 C         2.023072         1.274056        -1.168274
 C         2.874341         0.082813        -0.680070
 H         0.209506        -1.449444         0.118269
 H        -0.640516         0.109038        -0.230757
 H         0.125324        -0.821076        -1.536065
 H         1.335313         1.668657         1.573066
 H         1.623000        -0.132649         1.879623
 H         4.856127         0.606056         1.830385
 H         3.095216         2.935209         1.105442
 H         4.472905         2.647179        -0.047875
 H         1.696019         1.245213        -2.239636
 H         3.353801        -0.678808        -1.200681
