19
Iteration:  1521charge 0 multiplicity 1
 C         0.115539        -0.412012        -0.610458
 C         1.411932         0.230429        -0.218141
 C         1.836840         0.716295         1.142275
 C         3.318617         0.761213         0.677791
 O         4.368784         0.204742         1.573403
 C         3.595865         2.252584         0.230117
 O         2.341463         2.527412        -0.643206
 C         2.067231         1.246446        -1.170580
 C         2.892601         0.058421        -0.661913
 H         0.017694        -1.331038        -0.076355
 H        -0.704446         0.217745        -0.553577
 H         0.119796        -0.675108        -1.716768
 H         1.399358         1.747396         1.445484
 H         1.512174         0.048075         2.004640
 H         5.320997         0.328169         1.220614
 H         3.704793         2.817271         1.165660
 H         4.446232         2.336262        -0.515915
 H         1.878045         1.288552        -2.258576
 H         3.448145        -0.655082        -1.319141
