19
Iteration:  2074
 C         0.174831        -0.540275        -0.442468
 C         1.405092         0.299369        -0.244506
 C         1.842836         0.721725         1.166543
 C         3.321028         0.797710         0.639457
 O         4.305816         0.193809         1.351064
 C         3.517915         2.314745         0.315614
 O         2.517384         2.547643        -0.645671
 C         1.997381         1.282407        -1.158255
 C         2.909821         0.097857        -0.706118
 H         0.224313        -1.540817         0.063953
 H        -0.774839        -0.017850        -0.165584
 H         0.100377        -0.965527        -1.376174
 H         1.363786         1.644871         1.526100
 H         1.686836        -0.106072         1.829398
 H         4.377554        -0.744033         1.225898
 H         3.416456         2.916678         1.247124
 H         4.506981         2.596549        -0.036574
 H         1.777730         1.340234        -2.246490
 H         3.501449        -0.581205        -1.262116
