19
Iteration:  3864charge 0 multiplicity 1
 C         0.185480        -0.438599        -0.576132
 C         1.469723         0.169948        -0.304384
 C         1.760537         0.595020         1.115792
 C         3.266384         0.814474         0.705041
 O         4.355726         0.291448         1.557486
 C         3.524732         2.234784         0.220326
 O         2.445445         2.564473        -0.627920
 C         2.031426         1.253392        -1.159699
 C         3.004127         0.145308        -0.727647
 H         0.009213        -1.258914         0.083149
 H        -0.545721         0.352572        -0.260403
 H        -0.143163        -0.619820        -1.611426
 H         1.037860         1.289827         1.430051
 H         1.650979        -0.330128         1.719424
 H         3.958801        -0.466487         1.962503
 H         3.436014         2.933366         1.071477
 H         4.621122         2.201518        -0.195695
 H         1.858717         1.462073        -2.218758
 H         3.770590        -0.464393        -1.194441
