19
Iteration:  1107
 C         0.087995        -0.433521        -0.542063
 C         1.390025         0.310419        -0.193774
 C         1.879954         0.649953         1.239417
 C         3.289727         0.771017         0.665849
 O         4.294840         0.255246         1.659242
 C         3.690375         2.098326         0.002446
 O         2.493662         2.481260        -0.660638
 C         1.921932         1.333202        -1.192983
 C         2.861964         0.120401        -0.681969
 H         0.131148        -1.420853        -0.196519
 H        -0.684756         0.216534        -0.362736
 H         0.083426        -0.677217        -1.618843
 H         1.475902         1.631462         1.633647
 H         2.027339        -0.077640         2.055203
 H         4.939654         0.931394         1.511572
 H         4.067955         2.954104         0.554106
 H         4.417544         1.804588        -0.722130
 H         1.413637         1.393589        -2.129254
 H         3.418823        -0.660157        -1.316562
