19
Iteration:  2938
 C         0.147962        -0.447011        -0.522278
 C         1.417834         0.346664        -0.192241
 C         1.833295         0.605586         1.219633
 C         3.293627         0.769801         0.691337
 O         4.383052         0.190636         1.488279
 C         3.429004         2.308090         0.242563
 O         2.507439         2.499318        -0.741830
 C         2.126687         1.251470        -1.229852
 C         2.891460         0.177423        -0.646669
 H        -0.062094        -1.338549         0.261418
 H        -0.723131         0.198308        -0.471454
 H         0.181207        -0.775271        -1.560477
 H         1.416712         1.494019         1.730815
 H         1.496168        -0.298915         1.792664
 H         4.392131        -0.676912         1.041518
 H         3.220483         3.063341         1.076907
 H         4.460906         2.579802        -0.153291
 H         1.686239         1.203854        -2.231876
 H         3.389864        -0.548010        -1.239759
