19
Iteration:  3170
 C         0.226877        -0.563676        -0.598534
 C         1.354690         0.333935        -0.184746
 C         1.805334         0.622149         1.268997
 C         3.250963         0.827239         0.710040
 O         4.422433         0.250646         1.321853
 C         3.479848         2.199769         0.333076
 O         2.580631         2.574542        -0.736453
 C         2.041032         1.300162        -1.173783
 C         2.826665         0.132920        -0.693351
 H         0.244241        -1.571521         0.000069
 H        -0.680041        -0.059187        -0.291531
 H         0.071612        -0.773502        -1.640413
 H         1.386819         1.498704         1.753037
 H         1.490460        -0.228910         1.879108
 H         4.182363        -0.198418         2.212640
 H         3.306648         2.879854         1.219008
 H         4.551256         2.388681         0.079690
 H         1.754760         1.340149        -2.223923
 H         3.204024        -0.619905        -1.366974
