19
Iteration:  1228
 C         0.108435        -0.431594        -0.574895
 C         1.393161         0.278037        -0.224963
 C         1.805826         0.565067         1.252283
 C         3.326921         0.697039         0.745356
 O         4.341937         0.418889         1.606888
 C         3.594932         2.129700         0.092328
 O         2.545990         2.549703        -0.698345
 C         1.980851         1.315510        -1.174662
 C         2.833853         0.080144        -0.697338
 H         0.037687        -1.515842        -0.310260
 H        -0.648763         0.151879        -0.072639
 H        -0.024959        -0.405947        -1.712092
 H         1.318315         1.527785         1.584383
 H         1.817673        -0.292199         1.910776
 H         5.195853         0.063501         1.180874
 H         3.824132         2.899940         0.830136
 H         4.543835         1.887960        -0.463535
 H         1.521726         1.471886        -2.189074
 H         3.056305        -0.804539        -1.364559
