19
Iteration:  4144charge 0 multiplicity 1
 C         0.095293        -0.472013        -0.788023
 C         1.402154         0.188939        -0.212621
 C         1.860136         0.571726         1.159421
 C         3.264341         0.745746         0.661715
 O         4.419909         0.399902         1.550438
 C         3.603400         2.217212         0.193324
 O         2.415327         2.539319        -0.466554
 C         2.013539         1.292610        -1.113394
 C         2.920582         0.100456        -0.747825
 H        -0.062848        -1.519994        -0.364943
 H        -0.755687         0.121967        -0.681794
 H         0.147705        -0.611667        -1.893570
 H         1.359897         1.522058         1.508934
 H         1.902373        -0.054542         2.000212
 H         4.180417        -0.174631         2.310768
 H         3.822766         2.878697         1.047978
 H         4.483702         2.221536        -0.514907
 H         1.639179         1.463896        -2.088713
 H         3.384796        -0.525026        -1.549365
