19
Iteration:  3957
 C         0.150192        -0.555442        -0.558396
 C         1.396354         0.333019        -0.301704
 C         1.857695         0.579183         1.101961
 C         3.271723         0.800649         0.686541
 O         4.296200         0.281804         1.522253
 C         3.571606         2.282408         0.361393
 O         2.474013         2.532146        -0.677117
 C         2.138707         1.319414        -1.218790
 C         2.862603         0.143313        -0.698144
 H         0.197293        -1.524308         0.035403
 H        -0.747931         0.018997        -0.330888
 H         0.049660        -0.692917        -1.652402
 H         1.370263         1.329467         1.794526
 H         1.924274        -0.342680         1.644191
 H         3.991275        -0.604575         1.916982
 H         3.270412         3.087475         1.088089
 H         4.596884         2.455974        -0.075925
 H         2.018297         1.167815        -2.318056
 H         3.398277        -0.657265        -1.162257
