19
Iteration:  2548charge 0 multiplicity 1
 C         0.134279        -0.391246        -0.544301
 C         1.448369         0.235009        -0.268330
 C         1.881110         0.554460         1.133143
 C         3.307553         0.764884         0.640670
 O         4.384773         0.464661         1.560318
 C         3.601679         2.147549         0.100914
 O         2.357578         2.487664        -0.523887
 C         2.073862         1.289905        -1.166161
 C         2.827405         0.069690        -0.686339
 H        -0.033455        -1.315822        -0.048273
 H        -0.596074         0.353048        -0.179295
 H        -0.077856        -0.352474        -1.579261
 H         1.177269         1.303839         1.637259
 H         1.966029        -0.470543         1.475530
 H         4.328109        -0.479769         1.658146
 H         3.888986         2.756425         0.991243
 H         4.485726         2.207307        -0.556420
 H         1.723708         1.429682        -2.147298
 H         3.346144        -0.622151        -1.402993
