19
Iteration:   191charge 0 multiplicity 1
 C         0.078441        -0.196052        -0.132272
 C         1.401637         0.426793        -0.018522
 C         1.843151         1.001832         1.274791
 C         3.226684         0.801092         0.596697
 O         4.281283         0.271522         1.276118
 C         3.595899         2.181907         0.111962
 O         2.759775         2.313644        -1.009993
 C         2.091383         1.037086        -1.230099
 C         2.703922        -0.169210        -0.527830
 H        -0.179505        -0.821241         0.681843
 H        -0.691322         0.556838        -0.131003
 H         0.065750        -0.764600        -1.043409
 H         1.472303         2.026062         1.398045
 H         1.861747         0.371393         2.178730
 H         4.044791        -0.709904         1.264530
 H         3.401409         2.980355         0.865268
 H         4.610764         2.113462        -0.156749
 H         1.693271         0.920184        -2.166411
 H         3.157617        -0.958660        -1.123830
