19
Iteration:  3076charge 0 multiplicity 1
 C         0.149543        -0.593726        -0.423389
 C         1.309365         0.407733        -0.274611
 C         1.872364         0.599391         1.143967
 C         3.269131         0.711056         0.663277
 O         4.325610         0.167013         1.464177
 C         3.518298         2.303685         0.324245
 O         2.588984         2.567954        -0.739689
 C         2.092195         1.320591        -1.291377
 C         2.859425         0.152309        -0.690375
 H         0.105118        -1.406021         0.272583
 H        -0.868247        -0.011383        -0.314348
 H        -0.015548        -0.974120        -1.527504
 H         1.507602         1.382394         1.920115
 H         1.674359        -0.378875         1.713262
 H         4.753752         0.892937         1.909855
 H         3.171708         2.859812         1.235405
 H         4.628569         2.613871         0.148536
 H         1.644151         1.235092        -2.299589
 H         3.303163        -0.704067        -1.143472
