19
Iteration:  3705
 C        -0.028667        -0.540466        -0.599293
 C         1.422146         0.212318        -0.390526
 C         1.826950         0.550115         1.049178
 C         3.257620         0.841879         0.663413
 O         4.386334         0.336928         1.559261
 C         3.622038         2.273119         0.275086
 O         2.410245         2.544117        -0.528777
 C         2.117921         1.284690        -1.233937
 C         2.996381         0.162228        -0.606994
 H         0.134145        -1.410606         0.050625
 H        -0.871206         0.039715        -0.231388
 H        -0.293003        -0.722075        -1.606282
 H         1.336395         1.472334         1.415614
 H         1.783236        -0.272119         1.757046
 H         4.061079        -0.545285         1.775709
 H         3.803994         2.861590         1.252032
 H         4.598121         2.357422        -0.280793
 H         1.944727         1.335987        -2.323515
 H         3.563713        -0.530042        -1.238393
