19
Iteration:  1165charge 0 multiplicity 1
 C         0.153904        -0.471043        -0.415036
 C         1.394554         0.339195        -0.203463
 C         1.748891         0.720094         1.328335
 C         3.225725         0.783706         0.739706
 O         4.410199         0.134638         1.251289
 C         3.411201         2.259087         0.311319
 O         2.650779         2.541093        -0.862587
 C         2.074842         1.180344        -1.264242
 C         2.944824         0.164955        -0.576239
 H        -0.057258        -1.114424         0.416723
 H        -0.829133         0.082199        -0.340515
 H         0.261189        -0.839406        -1.371276
 H         1.401837         1.780676         1.424025
 H         1.453310         0.078266         2.182326
 H         3.958474        -0.563610         1.880101
 H         3.027837         3.033971         1.025723
 H         4.456087         2.478428         0.099859
 H         1.895747         1.106314        -2.380376
 H         3.399724        -0.489765        -1.276066
