19
Iteration:  1883charge 0 multiplicity 1
 C         0.151170        -0.639841        -0.597538
 C         1.296931         0.364261        -0.170794
 C         1.790647         0.569067         1.296657
 C         3.208611         0.773993         0.728599
 O         4.429135         0.280326         1.368599
 C         3.602272         2.229874         0.260274
 O         2.656589         2.570284        -0.863035
 C         1.973793         1.403025        -1.108494
 C         2.793465         0.230804        -0.641328
 H         0.249645        -1.523812         0.106172
 H        -0.849447        -0.283257        -0.357535
 H         0.431731        -1.186951        -1.553277
 H         1.407586         1.319074         1.974663
 H         1.902171        -0.451281         1.841754
 H         4.051347        -0.343681         2.088087
 H         3.506272         2.979523         1.001323
 H         4.576323         2.008215        -0.166097
 H         1.671179         1.350706        -2.169481
 H         3.261351        -0.553715        -1.136875
