19
Iteration:  4670charge 0 multiplicity 1
 C         0.184525        -0.473167        -0.767184
 C         1.339138         0.327916        -0.185138
 C         1.895216         0.511289         1.214722
 C         3.278098         0.748792         0.650716
 O         4.367629         0.279806         1.503579
 C         3.485947         2.336290         0.397589
 O         2.586819         2.583837        -0.809849
 C         2.038314         1.277191        -1.070258
 C         2.814731         0.130833        -0.642056
 H        -0.086139        -1.422484        -0.243801
 H        -0.764228        -0.055209        -0.696735
 H         0.486205        -0.827701        -1.770948
 H         1.596158         1.330791         1.951006
 H         1.837675        -0.472880         1.623811
 H         4.113241        -0.705586         1.536444
 H         3.138495         2.814308         1.376154
 H         4.510829         2.736618         0.151892
 H         1.453246         1.133753        -2.018169
 H         3.395859        -0.565251        -1.254107
