19
Iteration:   131charge 0 multiplicity 1
 C         0.044371        -0.225261        -0.234892
 C         1.333891         0.407432        -0.019010
 C         1.938455         0.892685         1.318912
 C         3.310946         0.748675         0.606836
 O         4.244921         0.305017         1.468655
 C         3.774717         1.986050        -0.057815
 O         2.697491         2.355182        -0.999317
 C         1.940562         1.156963        -1.235912
 C         2.668887        -0.088613        -0.550368
 H         0.028340        -1.273906         0.155360
 H        -0.624831         0.506836         0.254479
 H        -0.361378        -0.281718        -1.266017
 H         1.575214         1.932863         1.717969
 H         1.907889         0.080903         2.099730
 H         4.614299         1.165136         1.797053
 H         4.006236         2.830158         0.598035
 H         4.723792         1.851881        -0.679352
 H         1.448805         1.249639        -2.247338
 H         2.841683        -1.089965        -0.945612
