19
Iteration:  2989
 C         0.114009        -0.490573        -0.592383
 C         1.415698         0.299699        -0.244946
 C         1.875239         0.634105         1.199903
 C         3.274133         0.756291         0.657852
 O         4.382289         0.394284         1.557240
 C         3.661990         2.143814         0.209535
 O         2.447510         2.505748        -0.558068
 C         2.019370         1.323992        -1.196466
 C         2.817820         0.068621        -0.798774
 H         0.305195        -1.449825        -0.247995
 H        -0.765158         0.067937        -0.207142
 H        -0.109986        -0.702459        -1.692641
 H         1.311230         1.537962         1.556999
 H         1.914099        -0.226240         1.883359
 H         3.932141        -0.205659         2.133570
 H         3.806405         2.988890         0.791037
 H         4.545703         2.092006        -0.419103
 H         1.683448         1.369850        -2.227158
 H         3.341337        -0.615723        -1.430243
