19
Iteration:  2383charge 0 multiplicity 1
 C         0.150483        -0.421583        -0.785972
 C         1.350888         0.213370        -0.125101
 C         1.920511         0.665975         1.300755
 C         3.340663         0.807691         0.657331
 O         4.392357         0.341190         1.329875
 C         3.601853         2.339968         0.198043
 O         2.390280         2.446623        -0.624112
 C         2.042401         1.210484        -1.093946
 C         2.804268         0.034510        -0.542409
 H        -0.039999        -1.534386        -0.482587
 H        -0.687008         0.246705        -0.377851
 H         0.256407        -0.176877        -1.834224
 H         1.497637         1.622742         1.794404
 H         1.992157        -0.214035         1.993333
 H         4.224341        -0.527018         1.728053
 H         3.648327         2.874706         1.131232
 H         4.535904         2.413000        -0.276962
 H         1.598561         1.189880        -2.138575
 H         3.295755        -0.620689        -1.195130
