19
Iteration:  4829
 C         0.216473        -0.424686        -0.699521
 C         1.436321         0.272301        -0.171845
 C         1.829632         0.591011         1.177701
 C         3.293353         0.768997         0.627060
 O         4.319185         0.315870         1.456544
 C         3.507117         2.214716         0.350169
 O         2.454902         2.546766        -0.604350
 C         2.163078         1.306313        -1.222038
 C         2.836675         0.099594        -0.705038
 H         0.188640        -1.320232        -0.095128
 H        -0.764543         0.072064        -0.486510
 H         0.388366        -0.773052        -1.718614
 H         1.389016         1.422683         1.681547
 H         1.736727        -0.248704         1.941653
 H         3.903595        -0.471351         1.943026
 H         3.404892         2.838302         1.228943
 H         4.499070         2.323424        -0.211098
 H         1.537931         1.303107        -2.147309
 H         3.321130        -0.795717        -1.113777
