19
Iteration:  1778charge 0 multiplicity 1
 C         0.140545        -0.454992        -0.477492
 C         1.321749         0.378362        -0.189575
 C         1.873882         0.488940         1.299332
 C         3.266663         0.757655         0.666159
 O         4.350427         0.409294         1.437596
 C         3.449005         2.272572         0.336407
 O         2.738690         2.460499        -0.856726
 C         2.049800         1.336171        -1.237512
 C         2.783269         0.085334        -0.715155
 H         0.318846        -1.425819        -0.048488
 H        -0.897481        -0.214069        -0.332738
 H         0.087239        -0.595721        -1.503548
 H         1.523114         1.230600         2.081849
 H         1.836631        -0.445313         1.860237
 H         4.310331        -0.606728         1.408836
 H         3.152183         2.761801         1.305128
 H         4.460518         2.631482         0.200448
 H         1.596011         1.264468        -2.216504
 H         2.956299        -0.790340        -1.306453
