19
Iteration:  2333
 C         0.091057        -0.515436        -0.326174
 C         1.311894         0.388876        -0.291146
 C         1.908292         0.486637         1.157029
 C         3.300468         0.811018         0.687145
 O         4.352205         0.313766         1.402662
 C         3.372781         2.281769         0.349049
 O         2.649758         2.558258        -0.780402
 C         2.127035         1.327257        -1.274538
 C         2.807782         0.105237        -0.703115
 H         0.393903        -1.351686         0.288653
 H        -0.765906        -0.014682         0.043138
 H         0.040618        -1.006437        -1.394652
 H         1.383696         1.010930         1.936077
 H         2.047686        -0.497933         1.671286
 H         4.174860        -0.682687         1.434210
 H         3.068634         2.851824         1.293355
 H         4.536545         2.395051         0.324086
 H         2.135857         1.389916        -2.347696
 H         3.301364        -0.573347        -1.456765
