19
Iteration:   334charge 0 multiplicity 1
 C        -0.018460        -0.344012        -0.186726
 C         1.319578         0.376562        -0.017454
 C         1.874361         0.928802         1.337194
 C         3.282726         0.788864         0.652120
 O         4.317895         0.184607         1.389610
 C         3.661293         2.129948         0.060342
 O         2.785493         2.377268        -1.102425
 C         2.057013         1.192654        -1.250096
 C         2.705852         0.044749        -0.623853
 H        -0.081365        -1.208339         0.449835
 H        -0.838582         0.250870         0.120419
 H        -0.098589        -0.766760        -1.166395
 H         1.682419         1.924251         1.754332
 H         1.718199         0.050224         1.986124
 H         4.048624         0.097000         2.341927
 H         3.502545         3.048999         0.667787
 H         4.675578         2.076941        -0.371330
 H         1.349519         1.074225        -2.106103
 H         3.189201        -0.870370        -1.014127
