19
Iteration:  3132charge 0 multiplicity 1
 C         0.099214        -0.397247        -0.726277
 C         1.389763         0.186003        -0.201958
 C         1.887491         0.650473         1.246342
 C         3.370515         0.835876         0.696857
 O         4.377439         0.294158         1.532228
 C         3.534722         2.264575         0.165841
 O         2.395082         2.488505        -0.590991
 C         2.025843         1.212180        -1.119387
 C         2.899700         0.094060        -0.620212
 H        -0.091802        -1.422911        -0.360355
 H        -0.741599         0.373324        -0.517084
 H         0.057736        -0.499860        -1.890767
 H         1.357460         1.608353         1.689942
 H         1.943600        -0.170786         2.021702
 H         4.741300        -0.284966         0.821499
 H         3.669047         3.038521         0.937410
 H         4.542738         2.181688        -0.404838
 H         1.759681         1.070319        -2.202038
 H         3.290003        -0.484328        -1.495650
