19
Iteration:  1774
 C         0.163540        -0.473092        -0.497488
 C         1.326015         0.395876        -0.180110
 C         1.868905         0.501300         1.290003
 C         3.270502         0.758193         0.669861
 O         4.391450         0.377578         1.436111
 C         3.435199         2.262584         0.346474
 O         2.759837         2.473175        -0.868947
 C         2.005342         1.310484        -1.231855
 C         2.749305         0.099579        -0.671755
 H         0.378977        -1.505026        -0.036308
 H        -0.864785        -0.085053        -0.278436
 H         0.100923        -0.637020        -1.656843
 H         1.533069         1.304272         1.908007
 H         1.810898        -0.490752         1.770373
 H         4.308378        -0.553400         1.533937
 H         3.006742         2.846012         1.170780
 H         4.445325         2.715568         0.240752
 H         1.537176         1.416619        -2.237642
 H         2.887851        -0.789952        -1.260273
