19
Iteration:  3408
 C         0.231781        -0.558898        -0.799968
 C         1.392646         0.228519        -0.169004
 C         1.809439         0.552485         1.231351
 C         3.279386         0.775551         0.740700
 O         4.385193         0.344226         1.439647
 C         3.591344         2.151909         0.176722
 O         2.436064         2.581568        -0.570249
 C         1.996159         1.378239        -1.042197
 C         2.856553         0.161707        -0.683679
 H         0.316772        -1.691290        -0.652571
 H        -0.765695        -0.103715        -0.426109
 H         0.263310        -0.299754        -1.861002
 H         1.307790         1.422800         1.727608
 H         1.833463        -0.243390         1.951709
 H         3.966987        -0.192752         2.114477
 H         3.848095         3.126391         0.838563
 H         4.471782         2.143044        -0.547747
 H         1.813315         1.366672        -2.133422
 H         3.293829        -0.526859        -1.422942
