19
Iteration:  2226charge 0 multiplicity 1
 C         0.106933        -0.569722        -0.630739
 C         1.411408         0.267311        -0.192486
 C         1.869639         0.600654         1.280473
 C         3.354995         0.793324         0.714042
 O         4.377554         0.321691         1.462083
 C         3.610237         2.223524         0.221873
 O         2.505900         2.564333        -0.693745
 C         1.972468         1.299760        -1.143928
 C         2.796860         0.174153        -0.707032
 H         0.038965        -1.409569         0.098120
 H        -0.906627        -0.118643        -0.520626
 H         0.027588        -0.924026        -1.626302
 H         1.535820         1.588175         1.668748
 H         1.759066        -0.280394         1.950787
 H         4.397629        -0.655676         1.258376
 H         3.555102         2.983501         0.976923
 H         4.591486         2.182723        -0.214615
 H         1.385219         1.527175        -2.042117
 H         3.392402        -0.446374        -1.408473
