19
Iteration:  3021
 C         0.201279        -0.527027        -0.663801
 C         1.380145         0.354441        -0.150569
 C         1.839715         0.682986         1.324116
 C         3.271521         0.861536         0.666387
 O         4.369719         0.143815         1.355203
 C         3.543296         2.330851         0.265810
 O         2.515261         2.549582        -0.774827
 C         2.050880         1.246628        -1.122621
 C         2.810434         0.076001        -0.598737
 H         0.406241        -1.521800        -0.343890
 H        -0.844181        -0.347335        -0.213248
 H         0.221095        -0.523968        -1.825106
 H         1.339938         1.630204         1.723610
 H         1.759032        -0.262113         1.962528
 H         4.081397        -0.209345         2.231963
 H         3.330387         3.089677         0.983285
 H         4.564085         2.346612        -0.193299
 H         1.804692         1.092345        -2.166895
 H         3.390873        -0.606856        -1.160162
