19
Iteration:  1100charge 0 multiplicity 1
 C         0.160862        -0.384414        -0.550179
 C         1.427494         0.262767        -0.208804
 C         1.858247         0.655524         1.207046
 C         3.294245         0.818898         0.699033
 O         4.315826         0.232563         1.609232
 C         3.676172         2.102095        -0.026756
 O         2.503854         2.495306        -0.648665
 C         1.885408         1.292137        -1.181530
 C         2.848564         0.107004        -0.652926
 H         0.122995        -1.456359        -0.091539
 H        -0.865751         0.198991        -0.213173
 H        -0.024216        -0.466851        -1.627012
 H         1.441583         1.614877         1.590290
 H         1.698962        -0.073136         2.021546
 H         4.769483         1.107040         1.881334
 H         4.106792         2.860496         0.729593
 H         4.510988         1.803960        -0.789991
 H         1.322613         1.323892        -2.152780
 H         3.366496        -0.730186        -1.204474
