19
Iteration:  2842
 C         0.124147        -0.448543        -0.497272
 C         1.447650         0.309296        -0.271870
 C         1.938183         0.639720         1.103768
 C         3.404214         0.772505         0.609660
 O         4.265767         0.271162         1.563854
 C         3.611905         2.200135         0.192302
 O         2.348743         2.545435        -0.603035
 C         2.057833         1.213520        -1.209324
 C         2.913988         0.100426        -0.735462
 H         0.130017        -1.344732         0.004634
 H        -0.590761         0.142091         0.107934
 H        -0.259556        -0.439411        -1.477134
 H         1.431994         1.480932         1.535833
 H         1.835046        -0.191980         1.834933
 H         3.793825        -0.371270         2.141283
 H         3.575277         2.951868         1.029336
 H         4.487957         2.341176        -0.374757
 H         1.620280         1.455653        -2.174245
 H         3.548604        -0.452221        -1.366937
