19
Iteration:  2848
 C         0.136420        -0.424659        -0.501706
 C         1.425679         0.309066        -0.249955
 C         1.916025         0.636234         1.180684
 C         3.390340         0.776310         0.596156
 O         4.265992         0.296819         1.546191
 C         3.628426         2.192404         0.230060
 O         2.345037         2.536510        -0.625086
 C         2.090808         1.250822        -1.224744
 C         2.900316         0.099658        -0.764190
 H         0.269152        -1.521932        -0.030225
 H        -0.621744         0.138375         0.060194
 H        -0.271988        -0.611488        -1.560149
 H         1.352401         1.428981         1.776652
 H         1.846308        -0.357102         1.702350
 H         3.774151        -0.269704         2.115380
 H         3.721015         2.938184         1.029797
 H         4.647378         2.311964        -0.346470
 H         1.661678         1.257961        -2.255775
 H         3.367611        -0.637613        -1.488254
