19
Iteration:  3489charge 0 multiplicity 1
 C         0.304533        -0.529990        -0.573573
 C         1.486128         0.263616        -0.230840
 C         1.843704         0.530854         1.232947
 C         3.218978         0.825362         0.735825
 O         4.233622         0.131160         1.228208
 C         3.388453         2.357259         0.457372
 O         2.571060         2.573626        -0.691727
 C         2.085909         1.309487        -1.193513
 C         2.884226         0.158092        -0.688658
 H         0.055115        -1.357731         0.221873
 H        -0.573963         0.065906        -0.488852
 H         0.224753        -1.051621        -1.575321
 H         1.382368         1.466095         1.670196
 H         1.652958        -0.452081         1.830226
 H         4.522310         0.675520         1.999956
 H         3.012074         2.964115         1.303997
 H         4.430438         2.641895         0.013954
 H         1.759624         1.378169        -2.247308
 H         3.496175        -0.504107        -1.259302
