19
Iteration:  3490
 C         0.302696        -0.534124        -0.580221
 C         1.482803         0.267909        -0.228409
 C         1.842958         0.535011         1.228307
 C         3.225920         0.817265         0.729124
 O         4.239533         0.136426         1.231279
 C         3.385104         2.349901         0.459220
 O         2.571519         2.579290        -0.689260
 C         2.077259         1.310394        -1.193247
 C         2.879920         0.149655        -0.679934
 H         0.076115        -1.329788         0.201640
 H        -0.620229         0.031703        -0.519682
 H         0.198205        -1.042893        -1.595088
 H         1.412841         1.475906         1.689467
 H         1.680285        -0.450122         1.839988
 H         4.546575         0.668981         2.033928
 H         3.012839         2.998900         1.255158
 H         4.472384         2.638471         0.035476
 H         1.752791         1.376447        -2.259839
 H         3.510938        -0.492466        -1.243294
