19
Iteration:  2212
 C         0.160104        -0.566345        -0.433419
 C         1.329547         0.260730        -0.193557
 C         1.879980         0.591329         1.166989
 C         3.241922         0.830751         0.602378
 O         4.322297         0.261675         1.425971
 C         3.562318         2.316041         0.319737
 O         2.568460         2.560148        -0.700380
 C         2.036766         1.328167        -1.185290
 C         2.835066         0.149164        -0.730237
 H         0.007539        -1.440893         0.174944
 H        -0.622396         0.168232        -0.349063
 H         0.361022        -0.944368        -1.531101
 H         1.325822         1.208914         1.875893
 H         2.029359        -0.323740         1.809908
 H         4.416864        -0.693411         1.279575
 H         3.406865         2.976468         1.224409
 H         4.518394         2.407993        -0.168908
 H         1.806202         1.267138        -2.281420
 H         3.326682        -0.600231        -1.267283
