19
Iteration:  3695charge 0 multiplicity 1
 C         0.047446        -0.476573        -0.643190
 C         1.409108         0.179020        -0.373944
 C         1.838070         0.629562         1.123868
 C         3.336622         0.774893         0.708094
 O         4.376255         0.337496         1.516110
 C         3.551932         2.220883         0.285319
 O         2.404839         2.600433        -0.508130
 C         2.096752         1.223175        -1.216787
 C         2.969285         0.142669        -0.677833
 H        -0.065053        -1.486376        -0.110534
 H        -0.713214         0.135921        -0.236540
 H        -0.114386        -0.789387        -1.659500
 H         1.299731         1.469688         1.500432
 H         1.619231        -0.242216         1.697015
 H         4.252640        -0.424038         2.126072
 H         3.587050         3.137761         0.976337
 H         4.409111         2.138083        -0.453632
 H         1.964132         1.385628        -2.286131
 H         3.652764        -0.565576        -1.204786
