19
Iteration:  2775
 C         0.260856        -0.553961        -0.601599
 C         1.265373         0.470656        -0.139796
 C         1.813235         0.570836         1.328342
 C         3.243214         0.766382         0.708715
 O         4.469646         0.300745         1.443630
 C         3.535010         2.228253         0.277819
 O         2.658925         2.559693        -0.871071
 C         2.012883         1.261508        -1.213061
 C         2.661973         0.121115        -0.626585
 H         0.271730        -1.464463        -0.062280
 H        -0.747603        -0.053815        -0.542504
 H         0.436083        -0.807251        -1.622305
 H         1.456559         1.339117         1.965471
 H         1.741907        -0.317924         2.005441
 H         4.433502        -0.679069         1.296893
 H         3.330674         2.893802         1.175314
 H         4.518886         2.475846         0.079579
 H         1.382738         1.326302        -2.169090
 H         2.993627        -0.762582        -1.161535
