19
Iteration:  1451
 C         0.155433        -0.610501        -0.514872
 C         1.339022         0.445892        -0.201955
 C         1.882135         0.534609         1.256732
 C         3.275245         0.755044         0.669409
 O         4.295923         0.251395         1.605829
 C         3.525238         2.247331         0.376581
 O         2.710503         2.522868        -0.896895
 C         1.999257         1.353060        -1.262682
 C         2.716762         0.224656        -0.743153
 H         0.552104        -1.484040        -0.011469
 H        -0.904138        -0.233528        -0.357980
 H         0.136777        -0.840945        -1.554352
 H         1.600144         1.253094         2.065019
 H         1.892527        -0.466285         1.780734
 H         5.021463        -0.260693         1.121284
 H         3.022745         3.000823         1.033553
 H         4.600797         2.536521         0.169791
 H         1.560238         1.397117        -2.239206
 H         3.076163        -0.600665        -1.374739
