19
Iteration:  1101charge 0 multiplicity 1
 C         0.151225        -0.389176        -0.546674
 C         1.424433         0.270754        -0.208331
 C         1.861253         0.652309         1.212688
 C         3.290202         0.815341         0.694247
 O         4.312986         0.231210         1.620169
 C         3.675686         2.102826        -0.024712
 O         2.504279         2.489701        -0.648537
 C         1.885282         1.302597        -1.186942
 C         2.856649         0.107492        -0.657916
 H         0.141004        -1.475433        -0.114280
 H        -0.864045         0.222971        -0.246756
 H        -0.018790        -0.506662        -1.639220
 H         1.465497         1.594511         1.584513
 H         1.754704        -0.062139         2.047381
 H         4.799422         1.132068         1.813742
 H         4.116372         2.861486         0.708302
 H         4.501296         1.790175        -0.787416
 H         1.311706         1.324965        -2.161213
 H         3.355726        -0.685711        -1.194879
