19
Iteration:  4139
 C         0.146300        -0.444072        -0.748570
 C         1.445698         0.164758        -0.183516
 C         1.857444         0.547774         1.163768
 C         3.286656         0.762789         0.638732
 O         4.346692         0.405224         1.535559
 C         3.655398         2.200692         0.199491
 O         2.368299         2.541269        -0.474032
 C         1.998645         1.270343        -1.142974
 C         2.951705         0.131220        -0.774082
 H        -0.150838        -1.451308        -0.502608
 H        -0.771961         0.304368        -0.528564
 H         0.225031        -0.525884        -1.836080
 H         1.460770         1.486008         1.560321
 H         1.859514        -0.195435         2.100951
 H         4.090858        -0.115675         2.295370
 H         3.677340         2.887577         1.056976
 H         4.608927         2.125164        -0.358906
 H         1.628414         1.481354        -2.186605
 H         3.209431        -0.656185        -1.474360
