19
Iteration:  4756charge 0 multiplicity 1
 C         0.279235        -0.479180        -0.586273
 C         1.402839         0.388712        -0.242932
 C         1.855877         0.603724         1.194632
 C         3.256724         0.780562         0.622631
 O         4.259472         0.219083         1.519886
 C         3.473708         2.211865         0.369822
 O         2.482166         2.514237        -0.687885
 C         2.057440         1.334386        -1.179571
 C         2.956471         0.156979        -0.780986
 H         0.480697        -1.470605        -0.203127
 H        -0.720746        -0.055348        -0.227954
 H         0.254426        -0.511176        -1.738553
 H         1.387062         1.467055         1.722037
 H         1.825543        -0.158311         1.958753
 H         4.087554        -0.727811         1.541793
 H         3.200549         2.783965         1.255656
 H         4.426981         2.376517        -0.066047
 H         1.689643         1.364791        -2.215905
 H         3.492435        -0.677350        -1.169990
