19
Iteration:  1901charge 0 multiplicity 1
 C         0.260735        -0.622962        -0.434430
 C         1.285805         0.354179        -0.165049
 C         1.837451         0.522119         1.258957
 C         3.241525         0.830975         0.703223
 O         4.290533         0.320268         1.312584
 C         3.556208         2.273513         0.294755
 O         2.732931         2.607859        -0.784509
 C         2.082935         1.338730        -1.242728
 C         2.698125         0.116134        -0.682609
 H         0.304808        -1.480247         0.179778
 H        -0.784056        -0.304730        -0.240179
 H         0.205986        -0.893300        -1.464236
 H         1.260957         1.181493         1.971906
 H         1.676777        -0.472305         1.656320
 H         4.028117        -0.498154         1.853136
 H         3.280642         2.895567         1.178502
 H         4.610009         2.314870        -0.001631
 H         1.657106         1.434109        -2.229111
 H         3.217565        -0.680960        -1.212969
