19
Iteration:  1376
 C         0.140087        -0.378584        -0.687400
 C         1.408272         0.221921        -0.189543
 C         1.893860         0.679864         1.219231
 C         3.385229         0.803640         0.661176
 O         4.358869         0.216239         1.435402
 C         3.568981         2.279714         0.194481
 O         2.348723         2.520287        -0.626232
 C         2.098064         1.175659        -1.183756
 C         2.837901         0.027741        -0.598674
 H        -0.126334        -1.317424        -0.192285
 H        -0.619211         0.409249        -0.402623
 H         0.040027        -0.413871        -1.771346
 H         1.496914         1.691915         1.653177
 H         1.943954        -0.138634         2.096592
 H         4.216025         0.342293         2.379104
 H         3.596755         3.037845         1.007100
 H         4.400692         2.502457        -0.493104
 H         1.747680         1.310422        -2.188853
 H         3.371068        -0.853998        -1.085456
