19
Iteration:  2790
 C         0.169725        -0.494932        -0.566035
 C         1.380575         0.364507        -0.180082
 C         1.830125         0.695797         1.275555
 C         3.272944         0.770712         0.695185
 O         4.353605         0.293216         1.350393
 C         3.504612         2.250256         0.292395
 O         2.573799         2.497436        -0.771871
 C         2.067555         1.280973        -1.141340
 C         2.800077         0.095706        -0.598651
 H         0.373035        -1.460313        -0.024242
 H        -0.965669        -0.211298        -0.328086
 H         0.298275        -0.689881        -1.685609
 H         1.373432         1.527963         1.873965
 H         1.699272        -0.284267         1.696357
 H         4.464811        -0.694734         1.264223
 H         3.282625         3.040150         1.001606
 H         4.573237         2.150841        -0.139375
 H         1.988011         1.321555        -2.221208
 H         3.147027        -0.812838        -1.081991
