19
Iteration:  1388charge 0 multiplicity 1
 C         0.086113        -0.313450        -0.678822
 C         1.451062         0.229603        -0.263691
 C         1.873530         0.713145         1.186280
 C         3.351660         0.824853         0.693372
 O         4.400798         0.114552         1.457659
 C         3.571569         2.324538         0.116011
 O         2.290682         2.478510        -0.603588
 C         2.066543         1.197971        -1.113245
 C         2.970499         0.016907        -0.545378
 H        -0.096014        -1.322370        -0.290969
 H        -0.696303         0.296516        -0.180192
 H        -0.088304        -0.424323        -1.779179
 H         1.256399         1.665342         1.425588
 H         1.533821        -0.153360         1.933657
 H         4.543490         0.793358         2.229635
 H         3.578725         3.018042         0.962822
 H         4.488241         2.353065        -0.458206
 H         1.721321         1.055669        -2.149959
 H         3.622175        -0.622337        -1.153542
