19
Iteration:  4918
 C         0.218482        -0.607070        -0.752840
 C         1.338449         0.362893        -0.245823
 C         1.821188         0.636509         1.326179
 C         3.339432         0.730788         0.659184
 O         4.440395         0.215222         1.498564
 C         3.394212         2.340317         0.431757
 O         2.679424         2.614773        -0.819710
 C         1.994944         1.335269        -1.146130
 C         2.732728         0.126089        -0.681684
 H         0.388593        -1.511143        -0.333931
 H        -0.856490        -0.307885        -0.607905
 H         0.216542        -0.781172        -1.868681
 H         1.556823         1.327885         2.103448
 H         1.614207        -0.342333         1.916155
 H         4.152846        -0.703823         1.846383
 H         2.923759         3.038713         1.111555
 H         4.469233         2.477773         0.174205
 H         1.762151         1.262781        -2.191082
 H         3.170596        -0.742634        -1.166128
