19
Iteration:  2984
 C         0.111221        -0.460881        -0.578408
 C         1.375367         0.252893        -0.270885
 C         1.871596         0.608611         1.161240
 C         3.285900         0.746636         0.652339
 O         4.329836         0.437648         1.536444
 C         3.676587         2.148502         0.192953
 O         2.448496         2.486129        -0.549874
 C         2.098435         1.342557        -1.166286
 C         2.810696         0.057085        -0.792743
 H         0.251952        -1.470126         0.024138
 H        -0.823087        -0.011234        -0.158874
 H        -0.077828        -0.656175        -1.617192
 H         1.328843         1.445760         1.601580
 H         1.979157        -0.156972         2.021198
 H         3.970896        -0.317347         2.105651
 H         3.840012         3.025989         0.957202
 H         4.585803         2.115093        -0.479659
 H         1.609369         1.477889        -2.151336
 H         3.502071        -0.489874        -1.526927
