19
Iteration:   647
 C         0.082185        -0.220506        -0.319062
 C         1.405195         0.295971        -0.138507
 C         1.850894         0.823798         1.174706
 C         3.270095         0.784328         0.665731
 O         4.347991         0.343113         1.509156
 C         3.601441         2.102895         0.059112
 O         2.579731         2.394106        -0.854100
 C         2.018492         1.163197        -1.206473
 C         2.779189        -0.039747        -0.576035
 H        -0.033818        -1.205555         0.107216
 H        -0.744356         0.436782        -0.066731
 H        -0.139297        -0.443656        -1.400230
 H         1.450810         1.876367         1.410448
 H         1.900570         0.151426         2.060567
 H         4.740391        -0.472897         1.091547
 H         3.721910         2.899385         0.754037
 H         4.639776         2.031335        -0.217973
 H         1.740426         1.047264        -2.256274
 H         3.168508        -0.952560        -0.941028
