19
Iteration:  4402charge 0 multiplicity 1
 C         0.280763        -0.557506        -0.691333
 C         1.419492         0.281067        -0.290008
 C         1.746485         0.622601         1.245123
 C         3.267891         0.847268         0.745404
 O         4.332610         0.218369         1.459865
 C         3.601542         2.258795         0.275892
 O         2.453030         2.521516        -0.618119
 C         2.041114         1.276689        -1.155613
 C         2.870757         0.254796        -0.655023
 H         0.369106        -1.559937        -0.538792
 H        -0.744877        -0.160137        -0.418678
 H         0.214282        -0.351273        -1.727162
 H         1.209745         1.242938         1.886799
 H         1.665802        -0.410934         1.643194
 H         4.097864        -0.679212         1.609122
 H         3.655953         3.134691         0.922439
 H         4.517128         2.204162        -0.351571
 H         1.515025         1.486387        -2.114559
 H         3.572070        -0.460219        -1.127768
