19
Iteration:  1533
 C         0.147231        -0.381930        -0.577674
 C         1.421008         0.257372        -0.250976
 C         1.838070         0.637341         1.179618
 C         3.367412         0.774457         0.603224
 O         4.269165         0.279310         1.660233
 C         3.622082         2.195682         0.138785
 O         2.403536         2.493276        -0.551404
 C         2.021773         1.236187        -1.172239
 C         2.880122         0.063515        -0.760442
 H        -0.107248        -1.302934        -0.069785
 H        -0.618933         0.297721        -0.336656
 H         0.174820        -0.598042        -1.692092
 H         1.304941         1.607310         1.543463
 H         1.781125        -0.289695         1.809788
 H         5.095654         0.638683         1.358263
 H         3.720850         2.989876         0.892454
 H         4.532642         2.286016        -0.538489
 H         1.632733         1.288893        -2.187445
 H         3.518264        -0.594287        -1.492574
