19
Iteration:  2806charge 0 multiplicity 1
 C         0.138589        -0.490859        -0.531569
 C         1.341441         0.274998        -0.215414
 C         1.781849         0.703065         1.179076
 C         3.280278         0.862279         0.716024
 O         4.354388         0.251375         1.376536
 C         3.591456         2.253079         0.265609
 O         2.488076         2.521568        -0.655798
 C         2.114884         1.206392        -1.234383
 C         2.919554         0.095698        -0.624221
 H         0.034973        -1.499782        -0.091181
 H        -0.578006         0.107074        -0.072444
 H        -0.164307        -0.570827        -1.555441
 H         1.371395         1.677166         1.499485
 H         1.753326        -0.056605         2.009720
 H         4.154442        -0.701214         1.349536
 H         3.494975         2.871044         1.191412
 H         4.555672         2.434263        -0.265377
 H         1.579281         1.137302        -2.195652
 H         3.683248        -0.534628        -1.127616
