19
Iteration:  1016
 C         0.052872        -0.456404        -0.369101
 C         1.299235         0.386908        -0.158182
 C         1.887061         0.608526         1.310110
 C         3.206068         0.849866         0.654527
 O         4.272590         0.228776         1.457774
 C         3.503700         2.252165         0.306924
 O         2.778620         2.472022        -1.021437
 C         2.090898         1.238116        -1.221650
 C         2.806417         0.113658        -0.618865
 H         0.024333        -1.401980         0.225566
 H        -0.757024         0.192017        -0.208478
 H        -0.086997        -0.916007        -1.366781
 H         1.567902         1.385738         2.014583
 H         2.006024        -0.442646         1.672913
 H         5.064502         0.348754         0.934340
 H         3.313685         2.951021         1.106164
 H         4.526981         2.334504         0.023703
 H         1.657666         1.333327        -2.259710
 H         3.089033        -0.826551        -1.039901
