19
Iteration:  4066
 C         0.247566        -0.531587        -0.545007
 C         1.404517         0.346884        -0.177736
 C         1.728672         0.534946         1.202166
 C         3.192283         0.779943         0.674460
 O         4.336490         0.367065         1.292363
 C         3.375214         2.301398         0.532204
 O         2.800006         2.526629        -0.787406
 C         2.094861         1.302039        -1.128627
 C         2.795380         0.077617        -0.729652
 H         0.293688        -1.545326        -0.087824
 H        -0.692688        -0.144601        -0.169390
 H         0.231153        -0.785590        -1.604721
 H         1.263019         1.473485         1.569353
 H         1.342894        -0.279981         1.734911
 H         4.458252        -0.569201         1.188716
 H         2.932869         2.743005         1.443664
 H         4.416785         2.661347         0.274674
 H         1.724851         1.303596        -2.178962
 H         3.173940        -0.796555        -1.252169
