19
Iteration:  2706
 C         0.100369        -0.336562        -0.492581
 C         1.390447         0.254847        -0.292053
 C         1.815953         0.651409         1.113973
 C         3.310353         0.761888         0.698631
 O         4.458824         0.260160         1.473146
 C         3.500660         2.277667         0.226866
 O         2.363864         2.467995        -0.640591
 C         2.121592         1.176481        -1.275793
 C         2.979741         0.124355        -0.611264
 H        -0.016755        -1.228990         0.190094
 H        -0.476313         0.340146        -0.031091
 H        -0.346881        -0.613205        -1.450869
 H         1.446684         1.605314         1.592979
 H         1.477115        -0.127532         1.827918
 H         4.161449        -0.498380         1.979521
 H         3.420653         2.980151         1.011605
 H         4.523278         2.424817        -0.139812
 H         1.923364         1.103943        -2.324473
 H         3.477830        -0.476260        -1.455957
