19
Iteration:    25charge 0 multiplicity 1
 C        -0.149971        -0.354679        -0.052798
 C         1.143382         0.519202        -0.052472
 C         1.941796         0.861400         1.257015
 C         3.325752         0.796651         0.572922
 O         4.271006         0.225195         1.460414
 C         3.811961         2.206999         0.005566
 O         2.879058         2.333070        -1.126106
 C         2.056187         1.092801        -1.248307
 C         2.578319        -0.026457        -0.536915
 H        -0.098567        -0.856059         0.882601
 H        -1.155336         0.128230         0.017808
 H        -0.099299        -1.073781        -0.854156
 H         1.724467         1.722069         1.822780
 H         1.864951         0.023887         1.918574
 H         5.127876         0.709472         1.327852
 H         3.583410         3.074406         0.677165
 H         4.848488         2.213246        -0.312661
 H         1.749812         1.054521        -2.411027
 H         2.945399        -1.003641        -0.838527
