19
Iteration:  4267
 C         0.180022        -0.445793        -0.735075
 C         1.414826         0.248120        -0.346100
 C         1.764686         0.549632         1.224838
 C         3.295476         0.743201         0.806128
 O         4.393493         0.398403         1.446809
 C         3.556451         2.207228         0.298296
 O         2.436203         2.531424        -0.543428
 C         2.069864         1.300767        -1.144330
 C         2.912125         0.084325        -0.764570
 H         0.222468        -1.544450        -0.526200
 H        -0.652409        -0.031679        -0.185233
 H        -0.090348        -0.226906        -1.782719
 H         1.246124         1.439679         1.705702
 H         1.598554        -0.289931         1.847464
 H         4.396478        -0.403619         2.042513
 H         3.680005         3.033407         1.070790
 H         4.483579         2.157811        -0.312650
 H         1.512239         1.526236        -2.114650
 H         3.388337        -0.699190        -1.328635
