19
Iteration:   792
 C         0.001609        -0.312563        -0.364406
 C         1.352652         0.332234        -0.151108
 C         1.837535         0.654059         1.221005
 C         3.308139         0.739194         0.643524
 O         4.374760         0.324960         1.506340
 C         3.696332         2.173208         0.013950
 O         2.589178         2.467094        -0.832029
 C         2.056914         1.183434        -1.182748
 C         2.780671        -0.009072        -0.619560
 H        -0.370478        -0.962194         0.456909
 H        -0.820149         0.474559        -0.573641
 H         0.012887        -0.880805        -1.323752
 H         1.462610         1.565363         1.823884
 H         1.732924        -0.223620         1.936146
 H         4.239637         0.757081         2.360572
 H         3.827466         3.041257         0.731879
 H         4.654280         2.101665        -0.571689
 H         1.595082         1.231507        -2.209948
 H         3.221663        -0.826563        -1.216916
