19
Iteration:   485
 C        -0.046906        -0.410760        -0.280757
 C         1.218628         0.442889        -0.066677
 C         1.927246         0.864318         1.259952
 C         3.282301         0.816433         0.593417
 O         4.280095         0.192555         1.425870
 C         3.715478         2.182893         0.016445
 O         2.757990         2.412114        -0.988459
 C         2.053034         1.134864        -1.193750
 C         2.696586        -0.007279        -0.482073
 H         0.340960        -1.328570         0.162983
 H        -1.028201         0.015361         0.169750
 H        -0.352338        -0.483909        -1.360032
 H         1.509180         1.689224         1.850555
 H         1.875767         0.019414         1.949875
 H         4.825352         0.952693         1.791950
 H         3.766661         2.922271         0.820499
 H         4.680758         2.254772        -0.380281
 H         1.841969         0.962055        -2.331040
 H         3.152950        -0.882968        -0.907240
