19
Iteration:  4415
 C         0.196425        -0.555130        -0.845669
 C         1.371578         0.246598        -0.221289
 C         1.770404         0.577724         1.251040
 C         3.297186         0.854214         0.725162
 O         4.360207         0.284481         1.446482
 C         3.597769         2.263072         0.183935
 O         2.428786         2.596094        -0.506062
 C         2.077383         1.324255        -1.182687
 C         2.877418         0.115143        -0.580968
 H         0.270398        -1.594546        -0.569687
 H        -0.617987        -0.190089        -0.190817
 H        -0.015848        -0.513479        -1.924648
 H         1.282284         1.404258         1.742539
 H         1.913517        -0.243042         1.964485
 H         3.982908        -0.569755         1.838208
 H         3.758296         2.934680         1.028791
 H         4.532592         2.229031        -0.454387
 H         2.054885         1.294737        -2.320370
 H         3.333060        -0.657773        -1.170536
