19
Iteration:  4286
 C         0.061314        -0.435850        -0.855756
 C         1.382598         0.198066        -0.227759
 C         1.905997         0.537051         1.176130
 C         3.324621         0.785159         0.631050
 O         4.506128         0.347114         1.576033
 C         3.559999         2.242475         0.219443
 O         2.392944         2.547002        -0.532478
 C         2.028236         1.265191        -1.105965
 C         2.844916         0.121834        -0.600853
 H        -0.071807        -1.581335        -0.772989
 H        -0.841676         0.045789        -0.626241
 H         0.159231        -0.137968        -1.943758
 H         1.309328         1.431427         1.639223
 H         1.925812        -0.282572         1.885531
 H         3.932310        -0.302874         1.969800
 H         3.604455         2.794538         1.161523
 H         4.445676         2.463076        -0.384219
 H         1.821232         1.233397        -2.197493
 H         3.421246        -0.450405        -1.313912
