19
Iteration:  4969
 C         0.255734        -0.577958        -0.594878
 C         1.410824         0.312460        -0.312202
 C         1.753135         0.577391         1.146952
 C         3.265007         0.802833         0.799440
 O         4.331115         0.187397         1.413021
 C         3.517991         2.217476         0.309234
 O         2.486400         2.628303        -0.661201
 C         2.148953         1.346496        -1.238391
 C         2.856037         0.204974        -0.646493
 H         0.297028        -1.619949        -0.028602
 H        -0.670700        -0.140024        -0.239523
 H         0.099405        -0.768625        -1.654866
 H         1.329294         1.448709         1.688880
 H         1.512792        -0.223665         1.829609
 H         4.080567        -0.344934         2.227767
 H         3.333650         2.974677         1.078431
 H         4.523624         2.348289        -0.137414
 H         1.888315         1.353697        -2.297113
 H         3.414811        -0.593091        -1.128247
