19
Iteration:  2554charge 0 multiplicity 1
 C         0.120623        -0.383807        -0.514073
 C         1.434059         0.243353        -0.282129
 C         1.904554         0.583679         1.124964
 C         3.327893         0.749851         0.645851
 O         4.316150         0.449372         1.515079
 C         3.616881         2.195318         0.146758
 O         2.359818         2.486023        -0.530054
 C         2.073210         1.293561        -1.174192
 C         2.897170         0.045087        -0.691962
 H        -0.018365        -1.373821         0.038033
 H        -0.654790         0.318465        -0.100096
 H        -0.011510        -0.505985        -1.652372
 H         1.387808         1.174645         1.845470
 H         1.845731        -0.461061         1.577491
 H         4.167711        -0.548136         1.589064
 H         3.778648         2.835755         1.014611
 H         4.407124         2.160676        -0.653355
 H         1.698375         1.410327        -2.235486
 H         3.468390        -0.609327        -1.302363
