19
Iteration:  3500
 C         0.211476        -0.567775        -0.648930
 C         1.374273         0.303938        -0.241081
 C         1.820727         0.588103         1.205902
 C         3.265126         0.794917         0.652157
 O         4.367341         0.154082         1.310144
 C         3.404696         2.299520         0.418980
 O         2.543723         2.606426        -0.697083
 C         2.051657         1.316892        -1.157571
 C         2.881444         0.147490        -0.635412
 H         0.259912        -1.454894         0.099715
 H        -0.721525        -0.070950        -0.609634
 H         0.392697        -0.990376        -1.697737
 H         1.381487         1.389401         1.863171
 H         1.923178        -0.350818         1.871559
 H         4.653691         0.508284         2.213317
 H         3.094263         3.020881         1.191208
 H         4.524546         2.479257         0.385826
 H         1.672409         1.352578        -2.200113
 H         3.505971        -0.565185        -1.129515
