19
Iteration:  4340
 C         0.203288        -0.594259        -0.572592
 C         1.387578         0.321439        -0.382862
 C         1.725534         0.568524         1.173846
 C         3.195374         0.762949         0.699658
 O         4.394918         0.264935         1.370737
 C         3.465933         2.284944         0.433610
 O         2.585107         2.586155        -0.658826
 C         2.074125         1.342982        -1.154970
 C         2.936887         0.203297        -0.661436
 H         0.120981        -1.305109         0.354994
 H        -0.719842        -0.007483        -0.416672
 H         0.172879        -1.266208        -1.496274
 H         1.181579         1.434581         1.731173
 H         1.519914        -0.431864         1.567190
 H         4.338120        -0.671508         1.452310
 H         3.256293         2.848551         1.340338
 H         4.542263         2.361043         0.162265
 H         1.839446         1.192735        -2.242936
 H         3.586758        -0.355309        -1.333089
