19
Iteration:  2703
 C         0.100334        -0.321265        -0.493606
 C         1.406142         0.255133        -0.275165
 C         1.794081         0.657812         1.080940
 C         3.333908         0.725941         0.700574
 O         4.458840         0.273252         1.487620
 C         3.501367         2.303901         0.209224
 O         2.359035         2.457456        -0.605378
 C         2.100814         1.148769        -1.271461
 C         2.965657         0.100698        -0.641091
 H         0.055789        -1.218220         0.148851
 H        -0.543229         0.382655         0.087019
 H        -0.294376        -0.575246        -1.507686
 H         1.449903         1.637275         1.610022
 H         1.485317        -0.066842         1.842343
 H         4.066983        -0.547021         1.945038
 H         3.449287         3.026873         1.031962
 H         4.594046         2.527379        -0.273354
 H         2.009333         1.122915        -2.388617
 H         3.594120        -0.354440        -1.388905
