19
Iteration:  3637charge 0 multiplicity 1
 C         0.158794        -0.606651        -0.720209
 C         1.281499         0.293567        -0.213570
 C         1.771068         0.501099         1.316129
 C         3.333640         0.769592         0.753356
 O         4.428694         0.268768         1.386258
 C         3.477861         2.353672         0.364691
 O         2.647473         2.588025        -0.803402
 C         2.074518         1.329545        -1.158136
 C         2.775991         0.214852        -0.598176
 H         0.228688        -1.418442        -0.032627
 H        -0.923963        -0.217644        -0.752820
 H         0.313205        -0.920414        -1.740142
 H         1.140640         1.239492         1.912536
 H         1.767933        -0.428840         1.910876
 H         4.226109        -0.645216         1.538655
 H         3.216286         3.129014         1.088216
 H         4.563445         2.530770         0.193116
 H         1.760031         1.242189        -2.205973
 H         3.394429        -0.394517        -1.232444
