19
Iteration:  2250
 C         0.245279        -0.484243        -0.727836
 C         1.344380         0.282171        -0.140320
 C         1.807043         0.696314         1.229283
 C         3.318521         0.772437         0.678677
 O         4.502364         0.358461         1.410129
 C         3.664391         2.179974         0.134813
 O         2.371018         2.530649        -0.548839
 C         1.973006         1.231993        -1.097636
 C         2.720351         0.073613        -0.584471
 H        -0.039069        -1.526307        -0.473994
 H        -0.772607        -0.013444        -0.694293
 H         0.331952        -0.359255        -1.715241
 H         1.444568         1.676247         1.635692
 H         1.850239        -0.179720         1.844179
 H         4.356094        -0.495779         1.801291
 H         3.881032         3.002144         0.778849
 H         4.474257         1.973992        -0.580104
 H         1.703034         1.411119        -2.087937
 H         3.297731        -0.653266        -1.250947
