19
Iteration:  4377
 C         0.279382        -0.631693        -0.592577
 C         1.392531         0.280236        -0.319099
 C         1.835550         0.625684         1.237281
 C         3.286137         0.767276         0.615217
 O         4.259909         0.194547         1.483875
 C         3.451622         2.277194         0.390450
 O         2.580083         2.671304        -0.702061
 C         2.083950         1.319510        -1.155200
 C         2.825985         0.186938        -0.721317
 H         0.448321        -1.571998        -0.018343
 H        -0.643554        -0.120830        -0.372227
 H         0.125693        -0.850124        -1.645409
 H         1.441956         1.504006         1.842920
 H         1.740245        -0.204856         1.956008
 H         4.261876        -0.743013         1.288178
 H         3.158233         2.830079         1.311973
 H         4.449032         2.582430         0.124145
 H         1.785176         1.458521        -2.152455
 H         3.310919        -0.547752        -1.365855
