19
Iteration:  1938
 C         0.062384        -0.470944        -0.444550
 C         1.461205         0.255794        -0.216341
 C         1.875463         0.699468         1.140278
 C         3.308582         0.767256         0.663788
 O         4.397403         0.218582         1.453755
 C         3.478402         2.247152         0.260447
 O         2.458365         2.548819        -0.732580
 C         2.014968         1.208124        -1.207167
 C         2.921817         0.144855        -0.625210
 H         0.178836        -1.486446        -0.198803
 H        -0.689432         0.093035         0.041584
 H        -0.049844        -0.262834        -1.550698
 H         1.556630         1.681787         1.456589
 H         1.644580        -0.161037         1.833902
 H         4.234414        -0.759488         1.353271
 H         3.257299         2.877519         1.084141
 H         4.467672         2.633111         0.162964
 H         1.946691         1.222461        -2.313031
 H         3.665956        -0.255417        -1.326543
