19
Iteration:  4185charge 0 multiplicity 1
 C         0.319879        -0.546131        -0.648137
 C         1.369551         0.334774        -0.228650
 C         1.761675         0.633301         1.241715
 C         3.244345         0.821909         0.716885
 O         4.330524         0.238265         1.352684
 C         3.453094         2.265183         0.351298
 O         2.530252         2.565453        -0.633707
 C         2.151940         1.304116        -1.158119
 C         2.803987         0.132759        -0.687388
 H         0.327958        -1.443648         0.000338
 H        -0.751089        -0.128668        -0.657284
 H         0.608083        -1.001962        -1.615301
 H         1.227119         1.465406         1.791081
 H         1.664666        -0.349522         1.868137
 H         4.312641        -0.732030         1.113784
 H         3.363522         3.014624         1.120322
 H         4.486001         2.241183        -0.091397
 H         1.644044         1.471957        -2.081459
 H         3.469010        -0.653690        -1.064904
