19
Iteration:   703charge 0 multiplicity 1
 C         0.122312        -0.384817        -0.362141
 C         1.331105         0.370156        -0.146101
 C         1.797939         0.820019         1.211163
 C         3.268357         0.805198         0.666308
 O         4.290058         0.199489         1.491538
 C         3.768177         2.136985        -0.006852
 O         2.630013         2.456137        -0.879813
 C         1.997859         1.174092        -1.174030
 C         2.763811         0.033991        -0.571999
 H         0.066877        -1.342334         0.111722
 H        -0.683934         0.131778         0.219860
 H        -0.259131        -0.469312        -1.383892
 H         1.438279         1.711986         1.822706
 H         1.871792         0.017551         1.987359
 H         4.517001         0.935759         2.058019
 H         3.745342         2.953637         0.721510
 H         4.622407         1.891617        -0.577617
 H         1.509491         1.103043        -2.093295
 H         3.236966        -0.815101        -1.123117
