19
Iteration:  1620charge 0 multiplicity 1
 C         0.203827        -0.511935        -0.619453
 C         1.402810         0.359619        -0.170039
 C         1.781035         0.685506         1.277728
 C         3.283830         0.833206         0.750822
 O         4.315180         0.079979         1.318564
 C         3.425773         2.422395         0.380114
 O         2.580663         2.503672        -0.831978
 C         2.128757         1.256969        -1.118395
 C         2.817449         0.063038        -0.568261
 H         0.330452        -1.476830        -0.168543
 H        -0.719838        -0.193614        -0.322161
 H         0.251808        -0.625712        -1.723916
 H         1.282786         1.588104         1.696285
 H         1.680549        -0.065089         2.094943
 H         4.971514        -0.248335         0.646545
 H         2.999819         3.176432         0.981664
 H         4.426058         2.826607         0.086860
 H         1.878478         1.186496        -2.166107
 H         3.420479        -0.732183        -1.163430
