19
Iteration:  2540
 C         0.121391        -0.361065        -0.602592
 C         1.398368         0.233232        -0.263231
 C         1.813708         0.493974         1.157236
 C         3.345471         0.798289         0.644992
 O         4.474803         0.459710         1.595468
 C         3.593686         2.129494         0.112834
 O         2.410117         2.528783        -0.521270
 C         1.998238         1.247995        -1.164596
 C         2.827324         0.092585        -0.733708
 H        -0.083225        -1.476174        -0.230844
 H        -0.628342         0.246448        -0.137617
 H        -0.176252        -0.475146        -1.743541
 H         1.300776         1.395790         1.603274
 H         1.847719        -0.315612         1.945477
 H         4.686888        -0.399145         1.905348
 H         3.727734         2.946095         0.822337
 H         4.456061         2.091618        -0.544393
 H         1.717569         1.309180        -2.237053
 H         3.194672        -0.661640        -1.434811
