19
Iteration:  1265
 C         0.049712        -0.476090        -0.626611
 C         1.371137         0.291428        -0.185755
 C         1.897535         0.728125         1.204462
 C         3.348843         0.834033         0.676426
 O         4.375695         0.224182         1.440724
 C         3.584821         2.253194         0.146509
 O         2.455791         2.480317        -0.630801
 C         2.033645         1.224968        -1.147399
 C         2.918688         0.084339        -0.642008
 H         0.057249        -1.515213        -0.355935
 H        -0.816885         0.071879        -0.210037
 H        -0.201451        -0.415967        -1.641925
 H         1.541498         1.668633         1.672997
 H         1.614286        -0.003079         2.005449
 H         3.951384        -0.109053         2.262799
 H         3.588435         3.045636         0.914905
 H         4.431774         2.363290        -0.474741
 H         2.000107         1.157449        -2.225751
 H         3.459948        -0.734536        -1.077867
