19
Iteration:  3572
 C         0.137492        -0.501105        -0.667680
 C         1.478155         0.226811        -0.259790
 C         1.871634         0.609035         1.101084
 C         3.356756         0.883446         0.746782
 O         4.362853         0.180819         1.539702
 C         3.533665         2.284174         0.246498
 O         2.395282         2.533472        -0.601578
 C         2.024538         1.298264        -1.162536
 C         2.908116         0.151802        -0.716986
 H         0.183133        -1.544879        -0.303228
 H        -0.729449         0.008992        -0.036586
 H        -0.257464        -0.627392        -1.676999
 H         1.278683         1.407381         1.557583
 H         1.879852        -0.187391         1.800142
 H         3.939468        -0.562600         2.046793
 H         3.587576         3.114917         1.067007
 H         4.432899         2.621662        -0.426482
 H         1.647963         1.393170        -2.172382
 H         3.565216        -0.398349        -1.373547
