19
Iteration:  4960
 C         0.318669        -0.579161        -0.638916
 C         1.435141         0.315623        -0.236107
 C         1.748705         0.563833         1.244068
 C         3.161877         0.828454         0.730907
 O         4.289580         0.184327         1.335331
 C         3.502488         2.281591         0.401738
 O         2.553231         2.605198        -0.732496
 C         2.107117         1.324840        -1.197221
 C         2.893620         0.194597        -0.630861
 H         0.451202        -1.543320        -0.052379
 H        -0.542441        -0.009704        -0.239763
 H         0.033484        -0.829280        -1.669473
 H         1.190132         1.422802         1.587610
 H         1.699267        -0.355848         1.898410
 H         3.952033        -0.372440         2.102368
 H         3.532881         3.041248         1.182954
 H         4.475862         2.255459        -0.169811
 H         1.896179         1.380004        -2.254765
 H         3.196079        -0.687714        -1.183080
