19
Iteration:  2313charge 0 multiplicity 1
 C         0.127944        -0.539971        -0.365588
 C         1.368513         0.271828        -0.217907
 C         1.841677         0.527713         1.174480
 C         3.296030         0.766540         0.595000
 O         4.285585         0.270676         1.414586
 C         3.477073         2.314357         0.376184
 O         2.632158         2.561792        -0.795171
 C         2.047900         1.339635        -1.204499
 C         2.938278         0.183171        -0.810310
 H         0.250413        -1.346387         0.436189
 H        -0.653209         0.188669         0.084614
 H        -0.123904        -0.866308        -1.427396
 H         1.470036         1.349785         1.838860
 H         1.837901        -0.500726         1.703457
 H         4.039815        -0.619294         1.754749
 H         3.104283         2.945892         1.163346
 H         4.537300         2.622932         0.258851
 H         1.522607         1.336545        -2.119720
 H         3.546533        -0.699100        -1.249709
