19
Iteration:   214charge 0 multiplicity 1
 C        -0.155227        -0.250188        -0.311297
 C         1.279161         0.404902        -0.047785
 C         1.904782         0.960284         1.208509
 C         3.390414         0.781203         0.691513
 O         4.512824         0.224578         1.408709
 C         3.679459         2.110539        -0.036733
 O         2.640735         2.335229        -0.970887
 C         1.999672         1.105428        -1.216951
 C         2.727302        -0.003557        -0.461884
 H        -0.409721        -0.895447         0.537618
 H        -0.936078         0.477153        -0.271650
 H        -0.129774        -0.859112        -1.211991
 H         1.644949         1.968291         1.508761
 H         1.698422         0.208423         2.020652
 H         4.137032        -0.068832         2.233659
 H         3.659336         2.925294         0.725907
 H         4.609772         2.057704        -0.560768
 H         1.709539         1.013716        -2.215914
 H         3.044543        -1.010607        -0.753334
