19
Iteration:  4164
 C         0.151439        -0.585999        -0.783592
 C         1.312194         0.306190        -0.324554
 C         1.763165         0.630414         1.181827
 C         3.388895         0.793672         0.717467
 O         4.489970         0.341415         1.466331
 C         3.658676         2.196464         0.278833
 O         2.388612         2.552893        -0.546880
 C         2.005634         1.319523        -1.154627
 C         2.827880         0.149658        -0.560050
 H         0.030499        -1.523199        -0.182417
 H        -0.797050         0.019731        -0.695256
 H         0.219175        -0.964320        -1.831670
 H         1.398767         1.491474         1.834419
 H         1.446960        -0.352504         1.675461
 H         4.260448        -0.517043         1.776619
 H         3.574174         2.925806         1.062134
 H         4.676832         2.186867        -0.199271
 H         1.953128         1.397285        -2.219617
 H         3.265741        -0.597972        -1.251184
