19
Iteration:  2171
 C         0.132328        -0.502811        -0.414541
 C         1.415369         0.255839        -0.192183
 C         1.788699         0.665340         1.213733
 C         3.361617         0.775847         0.640976
 O         4.444543         0.166679         1.338330
 C         3.358234         2.259111         0.373403
 O         2.565911         2.565013        -0.764638
 C         2.047874         1.298928        -1.238418
 C         2.900506         0.207164        -0.701467
 H         0.102848        -1.562154        -0.039640
 H        -0.795381         0.059611        -0.080993
 H         0.074045        -0.733170        -1.466363
 H         1.315955         1.613318         1.605023
 H         1.473883        -0.253808         1.789264
 H         4.265806        -0.517711         1.974605
 H         3.100546         2.895559         1.202392
 H         4.409772         2.655081         0.260520
 H         1.891095         1.276344        -2.369599
 H         3.327261        -0.567086        -1.304618
