19
Iteration:  2987charge 0 multiplicity 1
 C         0.114212        -0.480532        -0.586179
 C         1.401774         0.282501        -0.253528
 C         1.876596         0.625492         1.183300
 C         3.271970         0.748906         0.656301
 O         4.363299         0.413909         1.549659
 C         3.671273         2.143531         0.206317
 O         2.445007         2.495082        -0.554263
 C         2.053222         1.336387        -1.184937
 C         2.811543         0.061202        -0.798737
 H         0.302304        -1.436821        -0.149491
 H        -0.822661         0.057553        -0.180872
 H        -0.113443        -0.697331        -1.684264
 H         1.294483         1.512365         1.569475
 H         1.967857        -0.218754         1.973575
 H         3.931103        -0.244840         2.115090
 H         3.826769         3.020061         0.837270
 H         4.567676         2.106159        -0.439637
 H         1.652177         1.409776        -2.202285
 H         3.433217        -0.573644        -1.493072
