19
Iteration:  2481
 C         0.268776        -0.561131        -0.487841
 C         1.380770         0.406838        -0.156508
 C         1.793908         0.644925         1.265179
 C         3.267775         0.764511         0.771818
 O         4.389052         0.133755         1.262557
 C         3.372041         2.306273         0.328503
 O         2.565355         2.563254        -0.836867
 C         2.102939         1.328769        -1.211239
 C         2.879715         0.166631        -0.649711
 H         0.396174        -1.533908         0.049579
 H        -0.719913        -0.074512        -0.161051
 H         0.251311        -0.623501        -1.547640
 H         1.313000         1.461058         1.919372
 H         1.851475        -0.326732         1.808864
 H         4.004600        -0.721637         1.608362
 H         2.975363         3.014100         1.082293
 H         4.453470         2.463503         0.200258
 H         1.393807         1.237051        -2.014538
 H         3.405766        -0.639498        -1.155003
