19
Iteration:  1000
 C         0.012680        -0.396199        -0.440367
 C         1.283050         0.380049        -0.146742
 C         1.881251         0.587606         1.226795
 C         3.346994         0.800501         0.698906
 O         4.340598         0.235466         1.467106
 C         3.598720         2.296137         0.174895
 O         2.701368         2.443031        -0.886244
 C         2.030052         1.215079        -1.226648
 C         2.723565         0.069032        -0.601624
 H        -0.089523        -1.198249         0.297275
 H        -1.022032         0.086556        -0.297647
 H         0.073961        -0.757968        -1.471152
 H         1.351765         1.289007         1.886335
 H         1.934597        -0.356435         1.738192
 H         4.995572         0.859820         1.746890
 H         3.232855         3.073624         0.909532
 H         4.696505         2.499763        -0.086808
 H         1.725238         1.056249        -2.231505
 H         3.295700        -0.756061        -1.078573
