19
Iteration:  2838charge 0 multiplicity 1
 C         0.121690        -0.432771        -0.473951
 C         1.439169         0.263776        -0.292463
 C         1.941622         0.645552         1.052434
 C         3.370216         0.771124         0.630931
 O         4.287594         0.246636         1.576623
 C         3.570317         2.236152         0.165655
 O         2.386509         2.534830        -0.583548
 C         2.027945         1.234722        -1.192650
 C         2.938624         0.105174        -0.716407
 H         0.031560        -1.485209         0.047289
 H        -0.585458         0.128189         0.087530
 H        -0.217096        -0.361564        -1.534463
 H         1.510250         1.634548         1.419922
 H         1.842884        -0.117468         1.882943
 H         3.822288        -0.414930         2.085493
 H         3.490597         2.915355         1.058733
 H         4.492457         2.387697        -0.544264
 H         1.617777         1.455768        -2.201491
 H         3.674102        -0.449590        -1.335310
