19
Iteration:  2922charge 0 multiplicity 1
 C         0.229912        -0.433628        -0.577736
 C         1.365640         0.371610        -0.175288
 C         1.829593         0.692012         1.300442
 C         3.266440         0.812667         0.705060
 O         4.331784         0.199169         1.309909
 C         3.441167         2.293033         0.414258
 O         2.530589         2.544076        -0.857634
 C         2.059051         1.190496        -1.154219
 C         2.890270         0.060212        -0.608394
 H         0.236129        -1.298205        -0.026764
 H        -0.688147         0.208463        -0.608677
 H         0.372217        -0.919185        -1.583666
 H         1.433732         1.593235         1.801616
 H         1.971935        -0.207527         1.845938
 H         4.569087        -0.748196         1.151122
 H         3.121386         2.842229         1.266159
 H         4.456748         2.584395         0.207111
 H         1.794591         1.223904        -2.222835
 H         3.325832        -0.918040        -0.984885
