19
Iteration:  2249
 C         0.243605        -0.488393        -0.723645
 C         1.337205         0.281223        -0.141043
 C         1.801431         0.694704         1.235042
 C         3.312953         0.769690         0.672840
 O         4.508673         0.354049         1.420829
 C         3.658494         2.176141         0.132961
 O         2.378223         2.535123        -0.557975
 C         1.963172         1.239421        -1.085815
 C         2.737425         0.081374        -0.593680
 H        -0.051539        -1.530032        -0.456406
 H        -0.779129        -0.015075        -0.707731
 H         0.322560        -0.361021        -1.729209
 H         1.432678         1.686421         1.598009
 H         1.861539        -0.195079         1.840727
 H         4.393158        -0.506764         1.790131
 H         3.894340         2.986610         0.765228
 H         4.457814         2.011094        -0.569303
 H         1.703046         1.408597        -2.097391
 H         3.300906        -0.672641        -1.250854
