19
Iteration:  4082charge 0 multiplicity 1
 C         0.100396        -0.557274        -0.538887
 C         1.368988         0.289062        -0.319325
 C         1.741201         0.597247         1.176324
 C         3.229642         0.816409         0.721894
 O         4.429492         0.274884         1.355482
 C         3.389299         2.283534         0.477018
 O         2.667307         2.536022        -0.768567
 C         2.145263         1.319284        -1.249661
 C         2.876913         0.142039        -0.607881
 H         0.251145        -1.483300         0.052413
 H        -0.748689        -0.022497        -0.010577
 H        -0.196601        -0.768754        -1.591705
 H         1.260909         1.395106         1.751524
 H         1.868514        -0.374382         1.765475
 H         4.450820        -0.718710         1.362294
 H         2.881355         2.905135         1.262303
 H         4.454870         2.521765         0.507562
 H         1.849077         1.475965        -2.270720
 H         3.546077        -0.498124        -1.205469
