19
Iteration:  4546
 C         0.200431        -0.509024        -0.805856
 C         1.310936         0.291569        -0.247033
 C         1.822799         0.620355         1.232342
 C         3.329099         0.859838         0.758605
 O         4.406120         0.335273         1.441304
 C         3.537463         2.224010         0.296635
 O         2.511243         2.537943        -0.564103
 C         2.056604         1.234747        -1.185883
 C         2.796070         0.117955        -0.661847
 H         0.195706        -1.417320        -0.316594
 H        -0.867229        -0.065839        -0.648087
 H         0.338211        -0.714174        -1.886692
 H         1.373936         1.286673         1.974164
 H         1.839495        -0.405663         1.692563
 H         4.068779        -0.509062         1.865448
 H         3.492693         2.929189         1.112659
 H         4.522483         2.155550        -0.183456
 H         1.808685         1.508428        -2.184824
 H         3.289528        -0.718705        -1.162550
