19
Iteration:  4131charge 0 multiplicity 1
 C         0.210748        -0.394090        -0.699602
 C         1.478025         0.142631        -0.240205
 C         1.883869         0.547339         1.214225
 C         3.369982         0.793016         0.641959
 O         4.272760         0.394303         1.506842
 C         3.628306         2.177405         0.238971
 O         2.350296         2.519127        -0.520026
 C         2.005867         1.256701        -1.142540
 C         2.902020         0.159406        -0.784982
 H        -0.154321        -1.395257        -0.396903
 H        -0.572669         0.349401        -0.330959
 H         0.294941        -0.301109        -1.794935
 H         1.407138         1.465984         1.669671
 H         1.761559        -0.432480         1.821972
 H         3.786738        -0.134106         2.166012
 H         3.643851         2.901548         1.042373
 H         4.616205         2.223414        -0.331329
 H         1.560992         1.331151        -2.137469
 H         3.320197        -0.726480        -1.289437
