19
Iteration:  3047
 C         0.225188        -0.594419        -0.522173
 C         1.413581         0.289158        -0.135081
 C         1.772549         0.657004         1.246260
 C         3.194435         0.879620         0.669278
 O         4.305646         0.104207         1.242121
 C         3.483039         2.307427         0.385316
 O         2.676065         2.511101        -0.849268
 C         2.112099         1.353761        -1.196571
 C         2.795513         0.182141        -0.586797
 H         0.127258        -1.602066         0.004136
 H        -0.703009        -0.222746        -0.146471
 H         0.250089        -0.641260        -1.582893
 H         1.245210         1.543162         1.601594
 H         1.803854        -0.124095         1.962783
 H         4.503291         0.148520         2.217137
 H         2.948541         2.945956         1.065919
 H         4.507652         2.530595         0.175881
 H         1.458579         1.324644        -2.090528
 H         3.578592        -0.562930        -0.896185
