19
Iteration:  4263
 C         0.212719        -0.465648        -0.656797
 C         1.450347         0.300363        -0.363146
 C         1.758118         0.538776         1.203420
 C         3.225135         0.747507         0.801118
 O         4.393909         0.404590         1.428140
 C         3.545105         2.178938         0.306513
 O         2.467237         2.496625        -0.549673
 C         2.076389         1.321649        -1.171851
 C         2.901838         0.113142        -0.742549
 H         0.286314        -1.593891        -0.509189
 H        -0.686841        -0.027075        -0.224202
 H        -0.062506        -0.179659        -1.716975
 H         1.143296         1.417752         1.660956
 H         1.585158        -0.339227         1.878971
 H         4.224329        -0.448343         1.890742
 H         3.630993         2.878123         1.131937
 H         4.478738         2.252580        -0.283355
 H         1.529021         1.510550        -2.085545
 H         3.440905        -0.618283        -1.378587
