19
Iteration:  1132
 C         0.089931        -0.485735        -0.511820
 C         1.342008         0.341885        -0.206392
 C         1.885952         0.651724         1.171746
 C         3.335410         0.823819         0.595676
 O         4.276142         0.311638         1.553732
 C         3.673259         2.263775         0.142826
 O         2.574933         2.544068        -0.683502
 C         1.996742         1.239026        -1.180119
 C         2.762253        -0.005864        -0.591600
 H         0.092233        -1.376942         0.141753
 H        -0.834726         0.176143        -0.521944
 H         0.208105        -0.977262        -1.456581
 H         1.505133         1.587397         1.678010
 H         1.915276        -0.213054         1.855919
 H         4.765029        -0.329348         1.044567
 H         3.686206         2.824783         1.132506
 H         4.658536         2.397467        -0.357226
 H         1.680507         1.190184        -2.249020
 H         3.055053        -0.823417        -1.292128
