19
Iteration:   205charge 0 multiplicity 1
 C        -0.048292        -0.218704        -0.248622
 C         1.273082         0.391461        -0.064616
 C         1.891927         1.013125         1.262271
 C         3.332284         0.789862         0.650537
 O         4.421816         0.251105         1.327358
 C         3.707010         2.156288         0.065755
 O         2.655203         2.300167        -0.971369
 C         2.055483         1.026634        -1.215835
 C         2.709903        -0.064530        -0.530319
 H        -0.285790        -0.904800         0.634722
 H        -0.838334         0.552503        -0.333058
 H        -0.107651        -0.828977        -1.185361
 H         1.679526         2.023361         1.574851
 H         1.554529         0.429996         2.123322
 H         4.188745        -0.347195         2.028977
 H         3.512963         2.937597         0.813440
 H         4.713325         2.305517        -0.370459
 H         1.594414         0.987469        -2.209424
 H         3.089246        -1.030920        -0.882805
