19
Iteration:   576charge 0 multiplicity 1
 C         0.057608        -0.345745        -0.290909
 C         1.278406         0.487752        -0.063916
 C         1.854864         0.751297         1.324861
 C         3.251664         0.721803         0.659216
 O         4.405362         0.276124         1.407831
 C         3.543147         2.100509         0.106348
 O         2.774727         2.422810        -1.023421
 C         2.068798         1.194280        -1.218884
 C         2.729476         0.035650        -0.657056
 H        -0.155641        -0.909233         0.679448
 H        -0.914415         0.172367        -0.595349
 H         0.060961        -1.196270        -0.988641
 H         1.619896         1.731739         1.713863
 H         1.689964        -0.037866         2.089774
 H         4.060234         0.628220         2.277976
 H         3.627970         2.914853         0.852925
 H         4.506892         2.104440        -0.284737
 H         1.576141         1.063635        -2.121921
 H         3.030587        -0.920623        -1.171175
