19
Iteration:  4780charge 0 multiplicity 1
 C         0.276703        -0.683539        -0.640650
 C         1.299329         0.377908        -0.222852
 C         1.763680         0.591406         1.228274
 C         3.225206         0.805727         0.725936
 O         4.343784         0.195621         1.383373
 C         3.521906         2.324485         0.379122
 O         2.683692         2.625793        -0.723359
 C         2.034596         1.381731        -1.181954
 C         2.812221         0.136554        -0.661823
 H         0.430958        -1.743782        -0.263171
 H        -0.712705        -0.320230        -0.433977
 H         0.333956        -0.657706        -1.749188
 H         1.320249         1.378262         1.913638
 H         1.662762        -0.252357         1.859657
 H         4.123017        -0.673007         1.671351
 H         3.133535         2.990938         1.174355
 H         4.530555         2.461336         0.056720
 H         1.789448         1.333915        -2.204220
 H         3.129758        -0.775933        -1.164038
