19
Iteration:  4215
 C         0.235765        -0.651845        -0.554525
 C         1.380262         0.230974        -0.213083
 C         1.814484         0.634701         1.172797
 C         3.358774         0.859137         0.678746
 O         4.298083         0.019026         1.485547
 C         3.388963         2.416667         0.425084
 O         2.657038         2.597290        -0.783958
 C         2.030242         1.353620        -1.177137
 C         2.833592         0.294042        -0.751670
 H         0.383977        -1.520229         0.025958
 H        -0.824608        -0.188702        -0.422598
 H         0.195625        -0.867706        -1.605707
 H         1.235028         1.330523         1.704402
 H         1.856920        -0.256202         1.900587
 H         4.229421        -0.866697         1.101101
 H         2.951865         3.066042         1.201707
 H         4.423197         2.776325         0.299030
 H         1.637074         1.490026        -2.210768
 H         3.509326        -0.385597        -1.246302
