19
Iteration:   192charge 0 multiplicity 1
 C         0.072994        -0.195411        -0.136332
 C         1.404396         0.433916        -0.028619
 C         1.840352         1.008155         1.285499
 C         3.225288         0.796075         0.594673
 O         4.292568         0.274642         1.275339
 C         3.605385         2.186947         0.113176
 O         2.751214         2.309803        -1.001437
 C         2.087784         1.030526        -1.230624
 C         2.699460        -0.172542        -0.529797
 H        -0.210459        -0.862828         0.682517
 H        -0.694571         0.566914        -0.170553
 H         0.053427        -0.775048        -1.064969
 H         1.499385         2.014308         1.358657
 H         1.881161         0.368858         2.168395
 H         4.024145        -0.702009         1.323586
 H         3.423381         2.988562         0.863281
 H         4.636801         2.125867        -0.146417
 H         1.683920         0.900262        -2.154176
 H         3.161423        -0.949812        -1.136303
