19
Iteration:  1755charge 0 multiplicity 1
 C         0.186121        -0.501354        -0.584758
 C         1.290691         0.370900        -0.145333
 C         1.806431         0.653887         1.286051
 C         3.279642         0.771030         0.736791
 O         4.522293         0.213846         1.338631
 C         3.352154         2.299770         0.374790
 O         2.722843         2.500974        -0.967829
 C         2.031944         1.341151        -1.140261
 C         2.757070         0.092957        -0.637300
 H         0.293356        -1.491337        -0.143400
 H        -0.833309        -0.235650        -0.413204
 H         0.136814        -0.582078        -1.610521
 H         1.360687         1.333818         2.041307
 H         1.705896        -0.270581         1.847164
 H         4.159397        -0.256391         2.065693
 H         2.955666         2.824575         1.247951
 H         4.390574         2.567307         0.365677
 H         1.554469         1.088656        -2.057478
 H         3.298736        -0.665797        -1.036291
