19
Iteration:  4222charge 0 multiplicity 1
 C         0.149747        -0.673513        -0.571037
 C         1.394380         0.280098        -0.202176
 C         1.831682         0.579686         1.143807
 C         3.331147         0.909677         0.673544
 O         4.330439         0.033671         1.522365
 C         3.413166         2.439938         0.397814
 O         2.632345         2.583954        -0.749812
 C         2.083330         1.414524        -1.214756
 C         2.862906         0.193975        -0.720525
 H         0.343125        -1.621423         0.039513
 H        -0.778499        -0.360069        -0.233338
 H         0.119236        -0.905582        -1.662789
 H         1.352060         1.454796         1.697645
 H         1.730787        -0.291871         1.699192
 H         4.100240        -0.818359         1.032776
 H         2.891650         3.042793         1.199604
 H         4.476319         2.739395         0.331246
 H         1.511357         1.629096        -2.154647
 H         3.440638        -0.396227        -1.451904
