19
Iteration:  3780charge 0 multiplicity 1
 C         0.205784        -0.644882        -0.801083
 C         1.302851         0.324845        -0.161620
 C         1.767704         0.629328         1.253482
 C         3.255690         0.917056         0.754679
 O         4.383058         0.272430         1.286373
 C         3.556225         2.327197         0.404926
 O         2.634933         2.508212        -0.760842
 C         2.103213         1.271615        -1.106361
 C         2.780020         0.121057        -0.487283
 H         0.295974        -1.618182        -0.316900
 H        -0.836882        -0.133122        -0.586534
 H         0.316782        -0.746741        -1.879316
 H         0.981072         1.383995         1.762839
 H         1.670516        -0.309262         1.854829
 H         4.161298        -0.704950         1.289862
 H         3.202979         3.134412         1.001598
 H         4.565234         2.606374         0.178540
 H         1.764204         1.371748        -2.138539
 H         3.319904        -0.737967        -0.919470
