19
Iteration:  2915charge 0 multiplicity 1
 C         0.209597        -0.467766        -0.645794
 C         1.397536         0.332300        -0.134857
 C         1.849050         0.690701         1.282294
 C         3.229307         0.849220         0.671258
 O         4.379922         0.231925         1.296422
 C         3.457254         2.274750         0.468939
 O         2.577057         2.507826        -0.870477
 C         2.121277         1.216777        -1.176618
 C         2.759837         0.079086        -0.551484
 H         0.210097        -1.390479         0.143498
 H        -0.751089         0.015130        -0.617482
 H         0.397414        -0.808862        -1.698616
 H         1.517660         1.582268         1.855591
 H         1.848284        -0.192623         1.968361
 H         4.261887        -0.724275         1.003553
 H         3.142879         2.889544         1.348503
 H         4.466872         2.662786         0.149389
 H         1.443802         1.264450        -2.042379
 H         3.247677        -0.746348        -0.961926
