19
Iteration:  1501
 C         0.119176        -0.539011        -0.637086
 C         1.420980         0.332038        -0.218575
 C         1.834903         0.763484         1.265250
 C         3.265941         0.874536         0.700641
 O         4.335024         0.149476         1.390852
 C         3.477136         2.299982         0.312875
 O         2.541865         2.479007        -0.688692
 C         2.092533         1.187352        -1.194153
 C         2.863991         0.114342        -0.574713
 H        -0.107970        -1.436734        -0.018426
 H        -0.719461         0.161370        -0.515648
 H         0.208412        -0.854396        -1.726047
 H         1.304010         1.695911         1.629413
 H         1.639177        -0.072124         1.947399
 H         4.966473         0.043306         0.632839
 H         3.305216         3.012047         1.131948
 H         4.480450         2.503225        -0.035468
 H         1.818074         1.301299        -2.221267
 H         3.557055        -0.723148        -0.968514
