19
Iteration:  4956
 C         0.323561        -0.568146        -0.654963
 C         1.435134         0.307351        -0.219954
 C         1.738949         0.582429         1.302430
 C         3.148668         0.818082         0.684078
 O         4.266996         0.184202         1.307650
 C         3.488738         2.341066         0.412408
 O         2.595054         2.577252        -0.753465
 C         2.082543         1.322736        -1.160289
 C         2.906729         0.180498        -0.642566
 H         0.483948        -1.571679        -0.052046
 H        -0.544550        -0.092783        -0.212751
 H         0.222360        -0.796543        -1.717598
 H         1.093268         1.411338         1.689541
 H         1.798119        -0.367023         1.785196
 H         3.876959        -0.334698         1.981521
 H         3.595260         3.048367         1.271352
 H         4.504708         2.161018         0.032190
 H         1.764256         1.335014        -2.221855
 H         3.300854        -0.692555        -1.147688
