19
Iteration:  4464charge 0 multiplicity 1
 C         0.189211        -0.451728        -0.630466
 C         1.416858         0.219659        -0.278492
 C         1.825862         0.514611         1.179974
 C         3.294381         0.752076         0.738397
 O         4.344097         0.328395         1.508432
 C         3.475049         2.251862         0.355199
 O         2.468626         2.569667        -0.684547
 C         2.091101         1.335109        -1.211483
 C         2.909759         0.134205        -0.724264
 H         0.122312        -1.532058        -0.194228
 H        -0.680007         0.161440        -0.316828
 H         0.214275        -0.597421        -1.744761
 H         1.410889         1.400465         1.792559
 H         1.696107        -0.431510         1.769779
 H         4.231276        -0.588510         1.706071
 H         3.322923         2.998926         1.163285
 H         4.466874         2.415574        -0.091720
 H         1.688449         1.494185        -2.199199
 H         3.476849        -0.669556        -1.275328
