19
Iteration:  2783charge 0 multiplicity 1
 C         0.237257        -0.522282        -0.603773
 C         1.288721         0.430501        -0.119270
 C         1.814510         0.631028         1.310729
 C         3.290890         0.776838         0.750151
 O         4.401048         0.303107         1.385377
 C         3.525464         2.223425         0.308995
 O         2.603153         2.527577        -0.846900
 C         2.053992         1.325148        -1.189318
 C         2.733048         0.073743        -0.633444
 H         0.282356        -1.474864         0.006132
 H        -0.719133        -0.185054        -0.446058
 H         0.284319        -0.800799        -1.660128
 H         1.392134         1.474710         1.925394
 H         1.731107        -0.365966         1.811707
 H         4.486988        -0.677991         1.252873
 H         3.300505         2.915377         1.121140
 H         4.561150         2.385033        -0.120677
 H         1.761996         1.149147        -2.221261
 H         2.907494        -0.874512        -1.238382
