19
Iteration:  4393
 C         0.281053        -0.550110        -0.653123
 C         1.437706         0.341556        -0.178447
 C         1.806335         0.585090         1.158888
 C         3.224386         0.805462         0.750815
 O         4.292814         0.196918         1.462949
 C         3.544168         2.275053         0.312580
 O         2.491502         2.530842        -0.683598
 C         1.989518         1.383297        -1.157103
 C         2.940473         0.210508        -0.683195
 H         0.464374        -1.593600        -0.386273
 H        -0.762485        -0.259402        -0.294759
 H         0.311874        -0.638654        -1.774700
 H         1.191581         1.362035         1.607689
 H         1.630413        -0.349454         1.728686
 H         4.178788        -0.731722         1.460936
 H         3.517174         3.031226         1.099564
 H         4.585152         2.211405        -0.134059
 H         1.450409         1.249804        -2.154180
 H         3.578359        -0.442830        -1.284778
