19
Iteration:  2374charge 0 multiplicity 1
 C         0.135210        -0.403730        -0.704945
 C         1.402513         0.212642        -0.123571
 C         1.916389         0.665357         1.301914
 C         3.249789         0.803715         0.655963
 O         4.439718         0.355918         1.320766
 C         3.488980         2.237117         0.268005
 O         2.506996         2.464948        -0.681751
 C         2.043985         1.202294        -1.049450
 C         2.793708         0.095319        -0.632872
 H        -0.028374        -1.459253        -0.577923
 H        -0.758834         0.096261        -0.410196
 H         0.096690        -0.473883        -1.815064
 H         1.449752         1.535422         1.799188
 H         1.859037        -0.078728         2.085664
 H         4.215995        -0.531239         1.637917
 H         3.348131         3.013925         1.087400
 H         4.469586         2.389418        -0.232942
 H         1.822967         1.152339        -2.130310
 H         3.393462        -0.445635        -1.309721
