19
Iteration:  4123charge 0 multiplicity 1
 C         0.228101        -0.351478        -0.669123
 C         1.514037         0.202131        -0.255256
 C         1.914450         0.548183         1.188548
 C         3.322822         0.814533         0.632239
 O         4.291534         0.317262         1.532859
 C         3.516837         2.237948         0.252378
 O         2.398988         2.478144        -0.587160
 C         2.022936         1.273031        -1.137497
 C         2.871112         0.110390        -0.739937
 H         0.074466        -1.380262        -0.239650
 H        -0.468300         0.282539        -0.271790
 H         0.021000        -0.302431        -1.761888
 H         1.276114         1.226620         1.782294
 H         1.916253        -0.367161         1.650418
 H         3.707121        -0.293952         2.053338
 H         3.639747         2.913438         1.111171
 H         4.336224         2.449542        -0.441455
 H         1.510328         1.297117        -2.063150
 H         3.635601        -0.485128        -1.266302
