19
Iteration:   998charge 0 multiplicity 1
 C         0.021752        -0.386398        -0.440262
 C         1.283971         0.384891        -0.160037
 C         1.872124         0.597069         1.239739
 C         3.334471         0.787489         0.696389
 O         4.356287         0.236114         1.468404
 C         3.612216         2.290186         0.161134
 O         2.681383         2.449890        -0.876768
 C         2.031986         1.212876        -1.211134
 C         2.741463         0.044216        -0.602465
 H        -0.140487        -1.248933         0.245804
 H        -0.961242         0.133925        -0.319810
 H         0.036123        -0.805885        -1.505660
 H         1.357106         1.386263         1.875708
 H         1.925289        -0.394067         1.722528
 H         4.945725         0.893067         1.834985
 H         3.218699         3.090886         0.855079
 H         4.710148         2.517071        -0.088773
 H         1.656670         1.080824        -2.243271
 H         3.256562        -0.715326        -1.113023
