19
Iteration:  3576
 C         0.096559        -0.518337        -0.644844
 C         1.459588         0.250848        -0.266126
 C         1.864216         0.645675         1.061039
 C         3.422906         0.849145         0.746266
 O         4.361179         0.174767         1.553393
 C         3.509833         2.299641         0.288825
 O         2.402510         2.548589        -0.621085
 C         2.022318         1.314674        -1.187831
 C         2.916357         0.154462        -0.704455
 H         0.196783        -1.604510        -0.223221
 H        -0.580587        -0.039744        -0.028314
 H        -0.165784        -0.707770        -1.687618
 H         1.304885         1.424199         1.555753
 H         1.937382        -0.248459         1.722258
 H         4.067777        -0.649760         1.940473
 H         3.423740         3.045818         1.118043
 H         4.365379         2.512941        -0.316704
 H         1.592406         1.307343        -2.223960
 H         3.519126        -0.478949        -1.347625
