19
Iteration:  2826charge 0 multiplicity 1
 C         0.057283        -0.423143        -0.438093
 C         1.475272         0.107460        -0.297386
 C         1.836984         0.728535         1.070240
 C         3.349164         0.789924         0.638867
 O         4.353202         0.202542         1.549088
 C         3.555479         2.308593         0.196735
 O         2.409767         2.500208        -0.609956
 C         2.021992         1.294697        -1.158676
 C         2.995251         0.144319        -0.716796
 H        -0.004734        -1.606516        -0.223230
 H        -0.655439         0.234485         0.064611
 H        -0.201977        -0.500783        -1.563210
 H         1.350648         1.754976         1.316777
 H         1.616802         0.028582         1.911198
 H         3.941604        -0.651574         1.912112
 H         3.666489         3.052574         1.001443
 H         4.600676         2.460177        -0.395620
 H         1.834838         1.264618        -2.234018
 H         3.527814        -0.603517        -1.413359
