19
Iteration:   340charge 0 multiplicity 1
 C        -0.042588        -0.352702        -0.211836
 C         1.276474         0.385995        -0.050445
 C         1.936224         0.887845         1.311241
 C         3.321656         0.797441         0.664029
 O         4.339837         0.187100         1.435728
 C         3.675421         2.128271         0.007783
 O         2.790858         2.413730        -1.090394
 C         1.984694         1.151404        -1.248816
 C         2.679114         0.059958        -0.579925
 H         0.008217        -1.249776         0.492647
 H        -0.979261         0.330752        -0.024949
 H        -0.171792        -0.810372        -1.255209
 H         1.597064         1.879202         1.702224
 H         1.806265         0.051238         2.022942
 H         4.151733         0.350145         2.374405
 H         3.650473         2.898651         0.798380
 H         4.777603         2.050024        -0.207217
 H         1.430363         1.090946        -2.139311
 H         3.055546        -0.824839        -1.077184
