19
Iteration:   349
 C        -0.061009        -0.362435        -0.259459
 C         1.219498         0.458031        -0.096045
 C         1.963400         0.798961         1.240050
 C         3.352950         0.806330         0.633546
 O         4.375429         0.202581         1.500955
 C         3.763523         2.146680        -0.028276
 O         2.768007         2.434244        -1.038565
 C         1.896215         1.134357        -1.193872
 C         2.645511        -0.004486        -0.512106
 H        -0.104654        -1.153889         0.527740
 H        -0.960669         0.272203        -0.141878
 H        -0.150212        -0.767845        -1.283783
 H         1.554369         1.716257         1.671317
 H         1.937478         0.130695         2.087342
 H         4.329518         0.769002         2.292465
 H         3.693144         2.861712         0.788326
 H         4.768317         2.086697        -0.445192
 H         1.747024         1.098621        -2.278727
 H         2.916233        -0.856314        -1.099721
