19
Iteration:  4917charge 0 multiplicity 1
 C         0.211465        -0.598158        -0.751863
 C         1.341450         0.372388        -0.248543
 C         1.811722         0.636970         1.328203
 C         3.334828         0.729113         0.663188
 O         4.444766         0.224439         1.501223
 C         3.396482         2.328495         0.426802
 O         2.673975         2.620569        -0.810633
 C         1.996738         1.327082        -1.147248
 C         2.741164         0.109425        -0.690219
 H         0.415929        -1.525239        -0.315336
 H        -0.843293        -0.297736        -0.615643
 H         0.203703        -0.786009        -1.843210
 H         1.581602         1.337763         2.095992
 H         1.597647        -0.370098         1.862523
 H         4.175099        -0.710451         1.836658
 H         2.935507         3.021319         1.087879
 H         4.463452         2.502487         0.169227
 H         1.753175         1.282223        -2.197337
 H         3.199126        -0.742289        -1.160030
