19
Iteration:   280
 C        -0.091915        -0.295363        -0.210961
 C         1.262610         0.404371        -0.090466
 C         1.899458         0.931906         1.273309
 C         3.377824         0.759627         0.623334
 O         4.335394         0.185395         1.556108
 C         3.719192         2.146457        -0.059300
 O         2.683805         2.387111        -0.935846
 C         2.047389         1.100896        -1.243649
 C         2.696639         0.004565        -0.592035
 H         0.003882        -1.230989         0.331868
 H        -0.914398         0.206453         0.222445
 H        -0.340582        -0.565618        -1.225395
 H         1.648347         1.993972         1.400200
 H         1.554819         0.459057         2.213304
 H         5.233212         0.247425         1.113476
 H         3.702401         3.031471         0.593950
 H         4.656241         2.109368        -0.588596
 H         1.634152         0.915850        -2.269131
 H         2.962236        -0.882851        -1.183931
