19
Iteration:   650charge 0 multiplicity 1
 C         0.073141        -0.224031        -0.322899
 C         1.429056         0.309459        -0.132549
 C         1.856341         0.807499         1.142660
 C         3.306745         0.761443         0.643036
 O         4.326231         0.382852         1.521700
 C         3.622965         2.083255         0.044371
 O         2.580388         2.378155        -0.817552
 C         1.987357         1.190516        -1.207970
 C         2.771766        -0.044238        -0.577905
 H        -0.066618        -1.190011         0.090493
 H        -0.820901         0.372301        -0.026824
 H        -0.158054        -0.378333        -1.343007
 H         1.416771         1.786227         1.425876
 H         1.858352         0.155303         2.026627
 H         4.604001        -0.470863         1.215280
 H         3.706989         2.959027         0.711978
 H         4.773689         2.021404        -0.335601
 H         1.748535         1.031328        -2.190597
 H         3.241920        -0.985860        -0.969088
