19
Iteration:  4178
 C         0.256957        -0.567033        -0.689354
 C         1.350496         0.359512        -0.241282
 C         1.743448         0.623860         1.222524
 C         3.209475         0.791152         0.741751
 O         4.414052         0.262693         1.385435
 C         3.534469         2.279487         0.324891
 O         2.500033         2.542031        -0.578016
 C         2.105005         1.306777        -1.211023
 C         2.812669         0.154088        -0.652726
 H         0.186837        -1.471801        -0.009054
 H        -0.687188        -0.156871        -0.686735
 H         0.573814        -0.918036        -1.701774
 H         1.135939         1.418838         1.722124
 H         1.835518        -0.239436         1.783157
 H         4.463734        -0.742823         1.376434
 H         3.557264         2.974359         1.201044
 H         4.448101         2.402967        -0.294401
 H         1.793407         1.336700        -2.252368
 H         3.294042        -0.759265        -1.052898
