19
Iteration:  3136
 C         0.117788        -0.410159        -0.750788
 C         1.395216         0.244159        -0.207965
 C         1.895553         0.651798         1.265241
 C         3.358815         0.842017         0.696527
 O         4.382144         0.298541         1.515781
 C         3.564857         2.273348         0.175496
 O         2.386814         2.487986        -0.598292
 C         2.037079         1.168305        -1.099716
 C         2.862450         0.070712        -0.614477
 H        -0.157884        -1.460882        -0.307179
 H        -0.654097         0.264129        -0.416722
 H         0.172438        -0.439283        -1.800682
 H         1.470363         1.579906         1.654187
 H         1.826117        -0.208272         1.898850
 H         4.551448        -0.360863         0.784285
 H         3.469891         3.060426         0.937074
 H         4.541525         2.263765        -0.392159
 H         1.835239         1.192947        -2.152969
 H         3.237637        -0.475454        -1.503309
