19
Iteration:  1853
 C         0.229436        -0.440555        -0.649558
 C         1.391195         0.232133        -0.131998
 C         1.885002         0.770476         1.218168
 C         3.322694         0.783552         0.603380
 O         4.376242         0.280735         1.406609
 C         3.598467         2.245007         0.209430
 O         2.398610         2.497158        -0.625740
 C         2.026196         1.269050        -1.126053
 C         2.828464         0.040788        -0.641544
 H        -0.125100        -1.383857        -0.050850
 H        -0.776577         0.089722        -0.554466
 H         0.239495        -0.702558        -1.749316
 H         1.410899         1.606281         1.727930
 H         1.910761        -0.034112         1.955975
 H         3.918525        -0.314619         1.962645
 H         3.468477         2.897453         1.131616
 H         4.582577         2.293000        -0.397086
 H         1.761104         1.218161        -2.196522
 H         3.216778        -0.834188        -1.168546
