19
Iteration:  3256
 C         0.110834        -0.503963        -0.769320
 C         1.384780         0.236913        -0.198157
 C         1.879603         0.670131         1.183231
 C         3.278775         0.868313         0.699870
 O         4.430724         0.303451         1.443478
 C         3.586363         2.264398         0.243925
 O         2.397320         2.499854        -0.532442
 C         2.050527         1.273750        -1.143491
 C         2.825762         0.057225        -0.597746
 H        -0.001997        -1.582099        -0.417620
 H        -0.742094        -0.017684        -0.355849
 H         0.149727        -0.486477        -1.820715
 H         1.414174         1.688784         1.477300
 H         1.759906        -0.152345         1.902003
 H         4.592089        -0.610288         1.276355
 H         3.614536         2.855227         1.121320
 H         4.518518         2.222803        -0.369223
 H         1.953540         1.420812        -2.234394
 H         3.468099        -0.505456        -1.227170
