19
Iteration:   589
 C         0.072011        -0.346706        -0.289679
 C         1.347957         0.440618        -0.072398
 C         1.862275         0.757530         1.406408
 C         3.242953         0.745958         0.661220
 O         4.299272         0.213553         1.360760
 C         3.602191         2.215917         0.107329
 O         2.787367         2.368221        -1.078976
 C         2.022254         1.220317        -1.214408
 C         2.713917         0.018896        -0.613763
 H        -0.190252        -0.919401         0.662538
 H        -0.779728         0.249323        -0.619043
 H         0.477322        -1.038667        -1.062460
 H         1.564734         1.719669         1.884382
 H         1.677226        -0.119388         2.092975
 H         4.669341         0.761435         2.054677
 H         3.070471         2.863509         0.802992
 H         4.618573         2.293720         0.019937
 H         1.536396         1.319077        -2.224473
 H         2.993409        -0.993122        -1.020415
