19
Iteration:  2459
 C         0.196132        -0.667604        -0.382816
 C         1.365008         0.331080        -0.280627
 C         1.868897         0.610034         1.209071
 C         3.311732         0.797852         0.658124
 O         4.331913         0.148737         1.375966
 C         3.505662         2.373504         0.416737
 O         2.613583         2.587017        -0.783564
 C         2.011066         1.395521        -1.245821
 C         2.797323         0.177023        -0.744521
 H         0.393478        -1.477008         0.469675
 H        -0.816415        -0.130919        -0.118923
 H         0.157394        -1.134140        -1.376357
 H         1.451911         1.581209         1.687353
 H         1.585128        -0.310638         1.792712
 H         3.977694        -0.718359         1.564359
 H         3.074470         2.894804         1.290689
 H         4.569832         2.653422         0.265866
 H         1.824936         1.243319        -2.338277
 H         3.368468        -0.491216        -1.351558
