19
Iteration:   795
 C        -0.002159        -0.316172        -0.380028
 C         1.336374         0.349442        -0.142563
 C         1.853421         0.654839         1.201821
 C         3.318060         0.722774         0.651232
 O         4.382314         0.318506         1.530755
 C         3.709139         2.188788        -0.015947
 O         2.565893         2.464231        -0.821148
 C         2.067880         1.175526        -1.160747
 C         2.774804        -0.012177        -0.630361
 H        -0.450035        -0.926376         0.399899
 H        -0.749732         0.433629        -0.528343
 H        -0.072799        -0.822155        -1.310367
 H         1.445493         1.520705         1.742508
 H         1.684896        -0.205768         1.874721
 H         4.387552         0.851003         2.339947
 H         3.723324         3.017949         0.699726
 H         4.651197         2.039628        -0.572163
 H         1.623989         1.247224        -2.182430
 H         3.279728        -0.759778        -1.166464
