19
Iteration:  2157charge 0 multiplicity 1
 C         0.144881        -0.497735        -0.567182
 C         1.397397         0.276683        -0.215277
 C         1.841031         0.620854         1.209466
 C         3.291477         0.783573         0.670075
 O         4.428100         0.263662         1.302669
 C         3.536095         2.316062         0.332570
 O         2.530499         2.536851        -0.720894
 C         2.044381         1.254543        -1.121227
 C         2.824543         0.071240        -0.663551
 H         0.174254        -1.460052        -0.105194
 H        -0.688590         0.001335        -0.094020
 H        -0.162818        -0.410685        -1.675299
 H         1.359970         1.513413         1.632619
 H         1.867276        -0.180227         2.015721
 H         3.958884        -0.190530         2.061992
 H         3.167792         2.803780         1.257136
 H         4.494592         2.592863         0.030563
 H         1.506777         1.340700        -2.049529
 H         3.414948        -0.637914        -1.195229
