19
Iteration:  1318charge 0 multiplicity 1
 C         0.143587        -0.653230        -0.427982
 C         1.277761         0.402923        -0.190085
 C         1.806255         0.593866         1.237678
 C         3.251141         0.869408         0.736469
 O         4.249142         0.171249         1.403229
 C         3.527823         2.275195         0.372100
 O         2.712869         2.576888        -0.842865
 C         2.164604         1.318819        -1.299959
 C         2.773114         0.152339        -0.666161
 H         0.093427        -1.416184         0.373928
 H        -0.870441        -0.175096        -0.362306
 H         0.216195        -1.219076        -1.343379
 H         1.390886         1.430609         1.918525
 H         1.935550        -0.436083         1.736118
 H         5.037954         0.147335         0.779642
 H         3.190364         3.027108         1.121011
 H         4.571158         2.547605         0.059623
 H         1.712648         1.319865        -2.311542
 H         3.376079        -0.619961        -1.149401
