19
Iteration:  1852
 C         0.222299        -0.432306        -0.649065
 C         1.397027         0.227267        -0.134422
 C         1.898906         0.780810         1.217203
 C         3.324461         0.782846         0.601303
 O         4.366373         0.284700         1.403044
 C         3.591565         2.234345         0.208860
 O         2.388494         2.492504        -0.619922
 C         2.028179         1.270166        -1.121263
 C         2.840240         0.036149        -0.643262
 H        -0.105794        -1.382743        -0.034610
 H        -0.773316         0.091259        -0.573796
 H         0.205733        -0.688642        -1.767344
 H         1.419219         1.602569         1.710435
 H         1.887842        -0.034083         1.956722
 H         3.925247        -0.330899         1.960648
 H         3.488115         2.888503         1.111092
 H         4.589572         2.319257        -0.386638
 H         1.797567         1.219351        -2.198229
 H         3.237073        -0.824371        -1.123236
