19
Iteration:  3368
 C         0.259782        -0.525293        -0.584678
 C         1.409283         0.310461        -0.241822
 C         1.838038         0.619663         1.193333
 C         3.308428         0.824818         0.663138
 O         4.284932         0.221376         1.441868
 C         3.438870         2.294853         0.363468
 O         2.500998         2.544109        -0.653001
 C         2.083084         1.291063        -1.165042
 C         2.854823         0.179516        -0.677955
 H         0.332082        -1.614506        -0.282470
 H        -0.654927        -0.200322        -0.221001
 H         0.241796        -0.751495        -1.643764
 H         1.244839         1.481666         1.606414
 H         1.733352        -0.367517         1.763815
 H         4.735572        -0.478398         0.889759
 H         3.289073         2.751148         1.270795
 H         4.430969         2.321883        -0.093969
 H         1.818226         1.334600        -2.203136
 H         3.322351        -0.572444        -1.369672
