19
Iteration:  4506
 C         0.152538        -0.573261        -0.558367
 C         1.458847         0.305387        -0.287766
 C         1.792094         0.541200         1.182826
 C         3.196026         0.817489         0.722967
 O         4.431123         0.210251         1.452823
 C         3.331267         2.326494         0.453833
 O         2.651211         2.551418        -0.738025
 C         2.111728         1.329073        -1.237454
 C         2.879138         0.216473        -0.719604
 H        -0.252874        -1.338561         0.218233
 H        -0.536046         0.193337        -0.482902
 H         0.128957        -1.108412        -1.561542
 H         1.165696         1.387112         1.620820
 H         1.779885        -0.430214         1.636878
 H         4.255882        -0.731815         1.371647
 H         2.962817         3.041682         1.240201
 H         4.429506         2.485072         0.245937
 H         1.606149         1.394329        -2.171508
 H         3.473782        -0.543330        -1.296676
