19
Iteration:  2485charge 0 multiplicity 1
 C         0.260796        -0.522037        -0.510619
 C         1.414567         0.400214        -0.147937
 C         1.805681         0.619027         1.282070
 C         3.258969         0.821950         0.741555
 O         4.380397         0.158843         1.257774
 C         3.427494         2.334376         0.348671
 O         2.547390         2.536939        -0.823972
 C         2.100999         1.302273        -1.191191
 C         2.836712         0.117709        -0.643991
 H         0.356989        -1.658006        -0.048029
 H        -0.691857        -0.098835        -0.182351
 H         0.260560        -0.588524        -1.715729
 H         1.296676         1.401490         1.905458
 H         1.676404        -0.377161         1.818253
 H         4.137434        -0.704303         1.626635
 H         3.000072         3.022929         1.106230
 H         4.471111         2.534905         0.091868
 H         1.412864         1.309415        -2.030342
 H         3.359119        -0.765467        -1.128996
