19
Iteration:  2140
 C         0.102357        -0.455276        -0.682697
 C         1.351377         0.259451        -0.122448
 C         1.939806         0.563740         1.277587
 C         3.297973         0.832292         0.667126
 O         4.379559         0.356292         1.370994
 C         3.575708         2.249202         0.224663
 O         2.500119         2.513238        -0.631811
 C         2.006230         1.257183        -1.143555
 C         2.821987         0.100177        -0.660546
 H         0.196854        -1.581364        -0.572128
 H        -0.865832        -0.118228        -0.192531
 H         0.161356        -0.262092        -1.718430
 H         1.472649         1.291915         1.986371
 H         1.883850        -0.401501         1.749762
 H         4.214083        -0.159489         2.217309
 H         3.660559         3.135091         0.897536
 H         4.484700         2.055833        -0.508251
 H         1.694393         1.271918        -2.232012
 H         3.256928        -0.735071        -1.237654
