19
Iteration:  3056charge 0 multiplicity 1
 C         0.208580        -0.570051        -0.474080
 C         1.355518         0.282180        -0.190962
 C         1.757099         0.639817         1.236922
 C         3.272634         0.850165         0.713080
 O         4.346385         0.069566         1.295364
 C         3.424777         2.336606         0.368892
 O         2.696653         2.592994        -0.872207
 C         2.074400         1.324950        -1.146624
 C         2.815630         0.129752        -0.671173
 H         0.480793        -1.464718         0.110335
 H        -0.802569        -0.145569        -0.238456
 H         0.094790        -0.957076        -1.537881
 H         1.154590         1.511908         1.664294
 H         1.526029        -0.174873         1.940438
 H         4.497311         0.565377         2.148350
 H         3.124214         2.974041         1.166189
 H         4.509469         2.503126         0.308475
 H         1.778157         1.321713        -2.221672
 H         3.429649        -0.575740        -1.221653
