19
Iteration:   754charge 0 multiplicity 1
 C         0.055333        -0.430545        -0.314104
 C         1.280283         0.420351        -0.122971
 C         1.766092         0.847732         1.270229
 C         3.346745         0.822515         0.677100
 O         4.360596         0.149092         1.435104
 C         3.602637         2.315051         0.172342
 O         2.735191         2.417823        -0.999034
 C         2.046596         1.194313        -1.194591
 C         2.760974         0.029790        -0.550298
 H         0.012151        -1.216239         0.510410
 H        -0.966969        -0.029295        -0.426303
 H         0.346104        -1.061042        -1.236419
 H         1.442128         1.824585         1.614854
 H         1.587959         0.115492         2.038655
 H         4.472236        -0.731113         0.956764
 H         3.228008         2.944961         1.005446
 H         4.620313         2.398300        -0.302870
 H         1.720309         1.141916        -2.246535
 H         3.088396        -0.763362        -1.211843
