19
Iteration:  1861
 C         0.200940        -0.514335        -0.633860
 C         1.370455         0.297106        -0.141330
 C         1.808270         0.684173         1.242673
 C         3.329943         0.814758         0.646282
 O         4.423171         0.255750         1.424767
 C         3.603427         2.280888         0.208890
 O         2.487628         2.535953        -0.667644
 C         2.004563         1.227743        -1.161480
 C         2.755093         0.079480        -0.642493
 H        -0.007900        -1.502059        -0.138824
 H        -0.624589         0.182274        -0.547489
 H         0.503365        -0.793165        -1.692199
 H         1.422232         1.588053         1.682384
 H         1.904203        -0.141058         1.982664
 H         4.021922        -0.310206         2.061629
 H         3.576086         2.957128         1.047901
 H         4.556591         2.334765        -0.376045
 H         1.471884         1.305015        -2.115825
 H         3.112851        -0.639619        -1.305111
