19
Iteration:  2204charge 0 multiplicity 1
 C         0.177143        -0.533557        -0.376076
 C         1.423919         0.319841        -0.218386
 C         1.798192         0.564035         1.144796
 C         3.346477         0.795912         0.589665
 O         4.282130         0.244942         1.375939
 C         3.489973         2.336333         0.324394
 O         2.574515         2.586168        -0.717990
 C         2.074614         1.272606        -1.187134
 C         2.848870         0.162159        -0.681476
 H         0.184537        -1.290390         0.445115
 H        -0.852647        -0.084094        -0.313940
 H         0.116148        -0.953073        -1.356492
 H         1.263224         1.212205         1.888375
 H         1.992553        -0.438237         1.601971
 H         4.140522        -0.668679         1.150845
 H         3.167038         2.761132         1.253035
 H         4.520247         2.542210         0.034636
 H         1.911308         1.405430        -2.282834
 H         3.322573        -0.697071        -1.166114
