19
Iteration:  3820
 C         0.190351        -0.462232        -0.603991
 C         1.442476         0.293268        -0.330366
 C         1.813594         0.616836         1.082384
 C         3.349824         0.744820         0.684182
 O         4.345518         0.338771         1.602189
 C         3.501884         2.241799         0.296974
 O         2.458561         2.500435        -0.636598
 C         2.063117         1.309309        -1.188988
 C         2.879555         0.099614        -0.708448
 H         0.160811        -1.311527         0.062998
 H        -0.766219         0.107406        -0.546118
 H         0.075908        -0.766874        -1.666762
 H         1.427621         1.408344         1.668253
 H         1.806022        -0.354917         1.641765
 H         4.107375        -0.451031         2.067695
 H         3.459906         2.828945         1.242376
 H         4.551311         2.448620        -0.226599
 H         1.567793         1.300221        -2.181133
 H         3.236849        -0.667487        -1.353312
