19
Iteration:  1849
 C         0.182824        -0.418829        -0.647336
 C         1.421888         0.222942        -0.149300
 C         1.941409         0.799965         1.213999
 C         3.333035         0.784751         0.600148
 O         4.336152         0.298470         1.390862
 C         3.570530         2.200670         0.202380
 O         2.362643         2.480971        -0.599386
 C         2.033051         1.259279        -1.112405
 C         2.871673         0.032516        -0.642573
 H         0.003757        -1.328465        -0.046780
 H        -0.730876         0.137370        -0.616499
 H         0.138355        -0.642987        -1.745224
 H         1.434959         1.660938         1.654719
 H         1.813077        -0.039631         1.960170
 H         3.945343        -0.427318         1.992011
 H         3.574854         2.863396         1.028684
 H         4.532284         2.413298        -0.315069
 H         1.884335         1.241215        -2.186663
 H         3.348763        -0.838848        -1.030808
