19
Iteration:   820charge 0 multiplicity 1
 C        -0.064348        -0.236619        -0.466821
 C         1.390496         0.266949        -0.167856
 C         1.902504         0.796475         1.227264
 C         3.355611         0.764903         0.630397
 O         4.368097         0.311251         1.582641
 C         3.664375         2.157489         0.034669
 O         2.447999         2.406088        -0.733654
 C         2.044096         1.094846        -1.240847
 C         2.853677         0.015016        -0.562166
 H        -0.478446        -1.114913         0.049345
 H        -0.873188         0.406500        -0.382783
 H        -0.171267        -0.454702        -1.556509
 H         1.627822         1.675721         1.724117
 H         1.873034         0.069261         2.000791
 H         5.306106         0.357661         1.417748
 H         3.728975         3.006898         0.696448
 H         4.477613         1.974619        -0.684488
 H         1.725516         1.193728        -2.223177
 H         3.345275        -0.825081        -1.137458
