19
Iteration:   641
 C         0.060454        -0.255444        -0.349124
 C         1.362028         0.300946        -0.136974
 C         1.843263         0.862699         1.250415
 C         3.244673         0.810661         0.692531
 O         4.374529         0.275333         1.485178
 C         3.581200         2.145757         0.101575
 O         2.582473         2.423669        -0.916714
 C         2.079108         1.100392        -1.219630
 C         2.793056        -0.020412        -0.569454
 H        -0.055003        -1.203684         0.230395
 H        -0.641740         0.557232        -0.025511
 H        -0.070427        -0.499774        -1.392683
 H         1.533431         1.861636         1.464544
 H         1.772880         0.144507         2.067645
 H         4.865687        -0.349168         0.962202
 H         3.605742         2.916399         0.932998
 H         4.640421         2.031310        -0.381586
 H         1.698956         1.092390        -2.232430
 H         3.151034        -0.989383        -1.018654
