19
Iteration:  4818
 C         0.236576        -0.549007        -0.656011
 C         1.364730         0.268628        -0.261022
 C         1.766009         0.599151         1.227664
 C         3.205313         0.755382         0.692595
 O         4.363858         0.306824         1.370774
 C         3.520220         2.253642         0.335711
 O         2.575755         2.608863        -0.657040
 C         2.078587         1.314201        -1.111023
 C         2.840257         0.113131        -0.653386
 H         0.111311        -1.508706        -0.192348
 H        -0.733047         0.013316        -0.675300
 H         0.321785        -0.740952        -1.737261
 H         1.297588         1.474132         1.614688
 H         1.614774        -0.357950         1.826261
 H         4.127941        -0.424950         1.977452
 H         3.522919         2.877480         1.226728
 H         4.613094         2.277207        -0.036173
 H         2.027207         1.511835        -2.214575
 H         3.302551        -0.741707        -1.167104
