19
Iteration:  2661charge 0 multiplicity 1
 C         0.139799        -0.466253        -0.565957
 C         1.346891         0.232623        -0.204646
 C         1.884213         0.608311         1.285621
 C         3.279240         0.814549         0.638832
 O         4.337595         0.353114         1.504128
 C         3.611651         2.217450         0.182163
 O         2.545910         2.536869        -0.708797
 C         1.968402         1.263959        -1.138822
 C         2.840490         0.108390        -0.702685
 H         0.114145        -1.554842        -0.372611
 H        -0.705798        -0.060836        -0.206197
 H         0.060352        -0.419888        -1.679101
 H         1.298615         1.447553         1.774612
 H         1.770661        -0.280893         1.906768
 H         4.400780        -0.591707         1.726728
 H         3.701694         2.933157         0.950766
 H         4.562381         2.260885        -0.314818
 H         1.662296         1.247703        -2.197884
 H         3.528632        -0.478219        -1.307567
