19
Iteration:  3420charge 0 multiplicity 1
 C         0.296682        -0.492829        -0.760687
 C         1.420146         0.256270        -0.264541
 C         1.819968         0.584956         1.214152
 C         3.246179         0.752160         0.642276
 O         4.355108         0.354786         1.425363
 C         3.609577         2.182342         0.219021
 O         2.434010         2.553256        -0.510586
 C         1.950133         1.311926        -1.099729
 C         2.850633         0.140011        -0.662168
 H         0.307383        -1.638507        -0.464177
 H        -0.687144        -0.166011        -0.323210
 H         0.211811        -0.450685        -1.834631
 H         1.444715         1.535924         1.688466
 H         1.704006        -0.324320         1.825870
 H         4.284181         0.145191         2.411037
 H         3.754369         2.871610         1.166397
 H         4.589467         1.940316        -0.371819
 H         1.410739         1.480903        -2.035058
 H         3.411171        -0.651575        -1.221290
