19
Iteration:  1466
 C         0.264853        -0.593463        -0.545576
 C         1.299568         0.372015        -0.189291
 C         1.867650         0.571101         1.340677
 C         3.228822         0.796996         0.751361
 O         4.300527         0.175865         1.498738
 C         3.402746         2.310092         0.266717
 O         2.777790         2.565250        -0.930903
 C         1.985007         1.429032        -1.201277
 C         2.782063         0.148594        -0.660350
 H         0.256211        -1.440544         0.122128
 H        -0.726313        -0.206677        -0.358318
 H         0.301272        -0.995279        -1.634072
 H         1.385775         1.322839         2.110154
 H         1.725155        -0.552545         1.652539
 H         4.824264        -0.408023         0.891451
 H         3.128824         2.873123         1.163396
 H         4.494994         2.423578         0.088843
 H         1.552777         1.517151        -2.249145
 H         3.218064        -0.710308        -1.085747
