19
Iteration:  1460charge 0 multiplicity 1
 C         0.220889        -0.578946        -0.552433
 C         1.279682         0.357310        -0.223384
 C         1.856371         0.581255         1.340573
 C         3.283411         0.723100         0.756093
 O         4.296818         0.213623         1.557881
 C         3.437185         2.283078         0.305847
 O         2.766031         2.535650        -0.926963
 C         1.958067         1.430716        -1.259551
 C         2.771579         0.214626        -0.709265
 H         0.320204        -1.498964         0.124614
 H        -0.818808        -0.333266        -0.163771
 H         0.385165        -0.964195        -1.524076
 H         1.675848         1.188751         2.183115
 H         1.893130        -0.427046         1.601936
 H         4.854115        -0.362779         0.938399
 H         3.124671         3.029482         1.084193
 H         4.489553         2.512430         0.110089
 H         1.567236         1.600567        -2.225771
 H         3.195771        -0.774361        -1.185033
