19
Iteration:  1540charge 0 multiplicity 1
 C         0.143347        -0.392561        -0.586519
 C         1.401761         0.227469        -0.238241
 C         1.881483         0.602323         1.136825
 C         3.368319         0.761275         0.653921
 O         4.202228         0.327504         1.639870
 C         3.618871         2.182495         0.096374
 O         2.454260         2.483454        -0.530302
 C         2.028553         1.268194        -1.192849
 C         2.898045         0.099086        -0.756805
 H        -0.009765        -1.308406        -0.020492
 H        -0.631280         0.371368        -0.349814
 H        -0.064522        -0.574047        -1.635854
 H         1.430047         1.375090         1.742134
 H         2.009691        -0.284141         1.800825
 H         5.132363         0.666239         1.546532
 H         3.617022         2.995280         0.843139
 H         4.543029         2.137662        -0.541936
 H         1.438262         1.305300        -2.130563
 H         3.318763        -0.560655        -1.411710
