19
Iteration:  3839charge 0 multiplicity 1
 C         0.035220        -0.487407        -0.578144
 C         1.399211         0.241502        -0.285285
 C         1.979464         0.545983         1.118952
 C         3.366590         0.835574         0.602015
 O         4.220106         0.330083         1.641462
 C         3.621210         2.326740         0.240299
 O         2.389222         2.544989        -0.526870
 C         2.116086         1.208561        -1.278317
 C         2.973868         0.102499        -0.783792
 H        -0.178569        -1.349150         0.122317
 H        -0.733761         0.175922        -0.384852
 H        -0.156297        -0.764036        -1.652235
 H         1.369569         1.326402         1.626169
 H         1.879349        -0.394844         1.693523
 H         3.711376        -0.393304         1.967861
 H         3.485365         2.984758         1.154580
 H         4.641262         2.344783        -0.134364
 H         2.028600         1.374649        -2.382746
 H         3.682741        -0.499140        -1.330463
