19
Iteration:   859charge 0 multiplicity 1
 C         0.025293        -0.456356        -0.383039
 C         1.332755         0.346552        -0.096370
 C         1.818652         0.825109         1.279223
 C         3.312542         0.790844         0.680654
 O         4.393049         0.212904         1.377162
 C         3.588019         2.250504         0.172635
 O         2.657408         2.437265        -0.948443
 C         2.065497         1.193083        -1.220694
 C         2.816594         0.073846        -0.572597
 H        -0.028423        -1.485785         0.050649
 H        -0.817590         0.225161         0.048470
 H        -0.030746        -0.438092        -1.463200
 H         1.399901         1.808131         1.737563
 H         1.487884        -0.007038         1.998220
 H         3.992542        -0.605775         1.811304
 H         3.403240         3.079032         0.892047
 H         4.652474         2.406154        -0.173024
 H         1.583339         1.126502        -2.237482
 H         3.427696        -0.712840        -0.917502
