19
Iteration:  1667
 C         0.179973        -0.527970        -0.567742
 C         1.383531         0.311755        -0.270093
 C         1.887547         0.563353         1.105611
 C         3.304425         0.750932         0.556367
 O         4.199320         0.367481         1.623935
 C         3.668069         2.208890         0.166749
 O         2.506492         2.581934        -0.516162
 C         2.029524         1.275898        -1.139509
 C         2.805250         0.078133        -0.743972
 H         0.059626        -1.339995         0.145429
 H        -0.683838         0.097710        -0.422271
 H         0.241247        -0.890332        -1.536688
 H         1.510473         1.442365         1.794566
 H         1.689005        -0.313526         1.740677
 H         5.027158         0.115552         1.268605
 H         3.811216         2.830101         1.093705
 H         4.530445         2.356434        -0.554298
 H         1.607213         1.362593        -2.171106
 H         3.185965        -0.694845        -1.424764
