19
Iteration:  4079
 C         0.132239        -0.542728        -0.515846
 C         1.360108         0.275354        -0.327023
 C         1.736959         0.589941         1.172706
 C         3.221569         0.795366         0.734716
 O         4.412488         0.303278         1.332388
 C         3.388055         2.284240         0.453788
 O         2.705742         2.535698        -0.741515
 C         2.138574         1.308580        -1.216997
 C         2.853449         0.130980        -0.629270
 H         0.353661        -1.495673         0.056941
 H        -0.696839        -0.062433        -0.128760
 H        -0.105534        -0.701718        -1.595043
 H         1.216985         1.400195         1.721356
 H         1.815251        -0.257207         1.761974
 H         4.405073        -0.693459         1.270484
 H         2.809089         2.932776         1.142293
 H         4.453405         2.552859         0.637116
 H         1.800642         1.468291        -2.222749
 H         3.472828        -0.578251        -1.233404
