19
Iteration:  4449
 C         0.190920        -0.477818        -0.782290
 C         1.437629         0.286987        -0.250887
 C         1.809665         0.624881         1.213035
 C         3.298529         0.779047         0.657180
 O         4.452642         0.390531         1.561142
 C         3.551138         2.173076         0.321945
 O         2.464734         2.438625        -0.538153
 C         1.972465         1.269848        -1.201300
 C         2.851597         0.187826        -0.766486
 H         0.173738        -1.515117        -0.396016
 H        -0.684126        -0.010495        -0.392084
 H        -0.099221        -0.432438        -1.872751
 H         1.166587         1.482734         1.460013
 H         1.665071        -0.146697         1.945274
 H         4.236909        -0.466668         2.033819
 H         3.405446         2.753064         1.243246
 H         4.595079         2.321287        -0.090943
 H         1.639206         1.250139        -2.244264
 H         3.265809        -0.539753        -1.405013
