19
Iteration:   372
 C        -0.044256        -0.260862        -0.329109
 C         1.328089         0.411627        -0.089626
 C         1.894627         0.872309         1.279335
 C         3.329331         0.767381         0.656560
 O         4.329992         0.303174         1.486973
 C         3.770076         2.047219        -0.132012
 O         2.599319         2.387855        -0.819150
 C         2.053915         1.091731        -1.208178
 C         2.693023        -0.041687        -0.565083
 H        -0.207722        -1.031873         0.467202
 H        -0.934433         0.433086        -0.373732
 H        -0.031456        -0.758235        -1.329422
 H         1.436445         1.725063         1.796716
 H         1.800704         0.101238         2.033365
 H         4.971921         1.029616         1.566198
 H         3.992989         2.768407         0.631070
 H         4.636674         1.774214        -0.723853
 H         1.547655         1.267817        -2.086859
 H         3.000615        -0.943507        -1.074730
