19
Iteration:  3210
 C         0.212579        -0.650845        -0.422575
 C         1.393095         0.340311        -0.291974
 C         1.873111         0.574426         1.185460
 C         3.287486         0.782257         0.694973
 O         4.165860         0.113292         1.422133
 C         3.511886         2.336196         0.365306
 O         2.597049         2.636621        -0.772535
 C         2.069354         1.329022        -1.220007
 C         2.819887         0.206768        -0.748308
 H         0.288752        -1.541605         0.204153
 H        -0.650547        -0.080138         0.012160
 H         0.046708        -0.891405        -1.458092
 H         1.412186         1.338052         1.940509
 H         2.080236        -0.382296         1.639436
 H         5.011635         0.308950         1.765953
 H         3.186066         2.888314         1.211418
 H         4.556532         2.582828         0.037404
 H         1.773466         1.359066        -2.244857
 H         3.450571        -0.513069        -1.328798
