19
Iteration:   350
 C        -0.058008        -0.360729        -0.264506
 C         1.212670         0.463065        -0.096695
 C         1.956516         0.794221         1.233979
 C         3.356981         0.803505         0.624546
 O         4.377406         0.206044         1.505988
 C         3.773749         2.147276        -0.026631
 O         2.762450         2.432747        -1.029691
 C         1.896518         1.140397        -1.190415
 C         2.643522        -0.016123        -0.509555
 H        -0.133677        -1.159915         0.536148
 H        -0.994347         0.295352        -0.126787
 H        -0.129244        -0.787888        -1.309910
 H         1.568112         1.732043         1.678683
 H         1.942831         0.102779         2.068432
 H         4.361520         0.818818         2.286592
 H         3.687930         2.892814         0.763376
 H         4.771201         2.095266        -0.514108
 H         1.774488         1.080047        -2.232970
 H         2.916422        -0.873992        -1.096023
