19
Iteration:  2225charge 0 multiplicity 1
 C         0.111139        -0.571433        -0.614200
 C         1.407194         0.265910        -0.193124
 C         1.874580         0.599494         1.278363
 C         3.345098         0.800894         0.709708
 O         4.371540         0.316454         1.459655
 C         3.609879         2.225192         0.231431
 O         2.509055         2.564074        -0.696149
 C         1.979341         1.300414        -1.148951
 C         2.795679         0.171184        -0.711017
 H         0.023715        -1.407503         0.099273
 H        -0.888770        -0.107345        -0.524762
 H         0.018342        -0.937165        -1.653782
 H         1.542371         1.580510         1.654686
 H         1.782959        -0.309917         1.927903
 H         4.411841        -0.643894         1.266601
 H         3.564588         3.011405         0.979883
 H         4.591163         2.213902        -0.187262
 H         1.389986         1.529474        -2.067907
 H         3.381472        -0.426945        -1.396367
