19
Iteration:  1936
 C         0.079974        -0.488393        -0.444750
 C         1.440992         0.278579        -0.215379
 C         1.885816         0.700117         1.139528
 C         3.325954         0.757737         0.674324
 O         4.393359         0.221132         1.452180
 C         3.466090         2.238111         0.268589
 O         2.478133         2.554116        -0.746710
 C         2.007741         1.211111        -1.209396
 C         2.913866         0.152918        -0.630169
 H         0.133959        -1.482676        -0.180990
 H        -0.608227         0.092059         0.084974
 H        -0.059887        -0.355872        -1.534313
 H         1.517535         1.696457         1.466214
 H         1.632550        -0.159335         1.789253
 H         4.189733        -0.778829         1.351075
 H         3.206561         2.826688         1.136039
 H         4.463395         2.638037         0.175339
 H         1.922211         1.229163        -2.313733
 H         3.593838        -0.229398        -1.318248
