19
Iteration:  1462
 C         0.243090        -0.581337        -0.555405
 C         1.273940         0.351752        -0.216649
 C         1.861605         0.584291         1.345005
 C         3.269698         0.742397         0.763048
 O         4.299787         0.198907         1.537546
 C         3.415861         2.292291         0.285925
 O         2.774207         2.543976        -0.929428
 C         1.962521         1.439367        -1.243383
 C         2.781769         0.190244        -0.697600
 H         0.265125        -1.462798         0.121241
 H        -0.800246        -0.311943        -0.182245
 H         0.373768        -0.969446        -1.519427
 H         1.589060         1.247992         2.191288
 H         1.839877        -0.508056         1.594718
 H         4.809190        -0.350042         0.951667
 H         3.133091         2.987502         1.142559
 H         4.525769         2.487425         0.089477
 H         1.563712         1.592579        -2.231732
 H         3.195146        -0.734922        -1.126717
