19
Iteration:  3192charge 0 multiplicity 1
 C         0.155189        -0.639488        -0.442572
 C         1.333521         0.313968        -0.244147
 C         1.800334         0.539455         1.165703
 C         3.265657         0.812004         0.620079
 O         4.317043         0.087619         1.374480
 C         3.494529         2.346386         0.362068
 O         2.694390         2.619040        -0.774195
 C         2.044420         1.367735        -1.178934
 C         2.856458         0.213085        -0.676248
 H         0.516301        -1.558501         0.228844
 H        -0.841843        -0.362749        -0.145155
 H         0.085626        -1.027847        -1.464885
 H         1.251876         1.302154         1.737235
 H         1.784495        -0.399997         1.755975
 H         4.257834         0.764610         2.030345
 H         3.219729         3.116134         1.161753
 H         4.599104         2.572428         0.167747
 H         1.606696         1.490350        -2.181710
 H         3.320121        -0.558481        -1.241385
