19
Iteration:   699charge 0 multiplicity 1
 C         0.081921        -0.392913        -0.343474
 C         1.332417         0.350395        -0.173106
 C         1.819151         0.799829         1.200910
 C         3.304941         0.794531         0.673119
 O         4.303095         0.219473         1.518560
 C         3.758081         2.129246        -0.035017
 O         2.617084         2.450980        -0.885223
 C         1.984566         1.201273        -1.173794
 C         2.771314         0.045576        -0.546957
 H        -0.019378        -1.448718         0.064913
 H        -0.728001         0.157510         0.150360
 H        -0.315667        -0.415342        -1.412960
 H         1.475740         1.657121         1.760430
 H         1.797110        -0.030793         1.902079
 H         4.423880         0.922139         2.231078
 H         3.996839         2.896267         0.774911
 H         4.716676         1.952988        -0.625039
 H         1.491683         1.284642        -2.201293
 H         3.190737        -0.762615        -1.069522
