19
Iteration:  1522
 C         0.116581        -0.406724        -0.606984
 C         1.424054         0.239855        -0.220846
 C         1.834656         0.707072         1.149701
 C         3.317352         0.765465         0.663015
 O         4.365564         0.208856         1.586741
 C         3.604764         2.250573         0.225009
 O         2.339358         2.523211        -0.639576
 C         2.058812         1.239878        -1.166981
 C         2.886127         0.055518        -0.675070
 H        -0.005158        -1.345351        -0.073711
 H        -0.719650         0.227331        -0.524315
 H         0.154732        -0.668379        -1.717602
 H         1.378413         1.735132         1.437498
 H         1.502117         0.032221         1.979183
 H         5.300023         0.358706         1.234354
 H         3.749675         2.808621         1.155444
 H         4.432042         2.348412        -0.516787
 H         1.899078         1.311130        -2.236756
 H         3.491687        -0.663440        -1.357392
