19
Iteration:   658
 C         0.012136        -0.266922        -0.344872
 C         1.375283         0.327095        -0.150705
 C         1.890245         0.799698         1.157908
 C         3.367980         0.750299         0.598593
 O         4.292183         0.443851         1.556177
 C         3.742793         2.085381         0.017999
 O         2.574970         2.373692        -0.771006
 C         1.977151         1.185777        -1.195301
 C         2.796131        -0.065272        -0.604465
 H        -0.093154        -1.237343         0.133471
 H        -0.722550         0.362605         0.175233
 H        -0.186815        -0.316369        -1.443478
 H         1.399783         1.756640         1.544689
 H         1.647393        -0.007411         1.899763
 H         4.406698        -0.507632         1.608980
 H         3.711955         2.873908         0.732112
 H         4.530714         2.031335        -0.670424
 H         1.624849         1.129786        -2.219723
 H         3.249680        -0.873987        -1.135744
