19
Iteration:  2121charge 0 multiplicity 1
 C         0.178779        -0.421499        -0.714784
 C         1.315902         0.303458        -0.197256
 C         1.791652         0.496542         1.298692
 C         3.349740         0.777324         0.636341
 O         4.513311         0.357603         1.548118
 C         3.648248         2.146069         0.043506
 O         2.386678         2.565405        -0.666445
 C         1.965707         1.324763        -1.081789
 C         2.790040         0.137320        -0.613499
 H         0.257602        -1.508721        -0.577436
 H        -0.648335        -0.061333        -0.094476
 H        -0.048613        -0.476527        -1.785633
 H         1.383836         1.282993         1.929975
 H         1.924352        -0.430551         1.827731
 H         4.358938        -0.416087         2.180596
 H         3.914124         2.904781         0.797201
 H         4.492008         2.095328        -0.633825
 H         1.425539         1.352733        -2.021309
 H         3.437482        -0.584557        -1.243476
