19
Iteration:  3235charge 0 multiplicity 1
 C         0.231747        -0.509093        -0.575157
 C         1.424506         0.333100        -0.249442
 C         1.786557         0.653627         1.180073
 C         3.299866         0.784380         0.694176
 O         4.306134         0.168424         1.486638
 C         3.493214         2.247312         0.262654
 O         2.442531         2.565742        -0.638105
 C         2.048579         1.259041        -1.150904
 C         2.934043         0.177331        -0.745970
 H         0.285319        -1.539929        -0.022391
 H        -0.612994        -0.010556        -0.102887
 H         0.014450        -0.605823        -1.627573
 H         1.242562         1.590992         1.572215
 H         1.707037        -0.182913         1.902029
 H         5.108506        -0.208328         1.038683
 H         3.436722         2.869324         1.193836
 H         4.524211         2.420691        -0.211432
 H         1.669628         1.325836        -2.187067
 H         3.397171        -0.669099        -1.176925
