19
Iteration:  4611charge 0 multiplicity 1
 C         0.176363        -0.622784        -0.591741
 C         1.366750         0.334125        -0.307327
 C         1.798086         0.711007         1.074209
 C         3.316288         0.783825         0.659331
 O         4.358208         0.241379         1.505085
 C         3.495352         2.266710         0.382844
 O         2.531354         2.517790        -0.562730
 C         2.107999         1.345833        -1.243604
 C         2.853803         0.144077        -0.714268
 H         0.482545        -1.549467        -0.255455
 H        -0.755836        -0.233213        -0.045794
 H        -0.173108        -0.666914        -1.632716
 H         1.610580         1.587212         1.645875
 H         1.546427        -0.177197         1.708066
 H         4.145033        -0.698308         1.683957
 H         3.214725         2.829396         1.273650
 H         4.437718         2.647395         0.011323
 H         1.985540         1.325048        -2.294104
 H         3.280220        -0.674349        -1.346821
