19
Iteration:  2451
 C         0.185572        -0.676934        -0.363792
 C         1.358291         0.303309        -0.276027
 C         1.844769         0.636261         1.114481
 C         3.326321         0.796117         0.651700
 O         4.310128         0.197821         1.393292
 C         3.548621         2.356151         0.400059
 O         2.613536         2.590882        -0.718105
 C         2.056774         1.377691        -1.225125
 C         2.786128         0.138742        -0.762970
 H         0.295044        -1.525664         0.476067
 H        -0.779859        -0.134648        -0.209220
 H         0.085170        -1.188664        -1.414277
 H         1.345033         1.456444         1.728340
 H         1.871756        -0.280923         1.761119
 H         3.971323        -0.673086         1.557377
 H         3.149972         3.011149         1.222896
 H         4.563767         2.691245         0.187652
 H         1.567044         1.539142        -2.179871
 H         3.260574        -0.599359        -1.464447
