19
Iteration:  3218
 C         0.228917        -0.566227        -0.415811
 C         1.420658         0.293331        -0.275936
 C         1.897271         0.588663         1.184368
 C         3.273530         0.793635         0.650412
 O         4.171869         0.073281         1.482863
 C         3.487697         2.321137         0.354657
 O         2.541854         2.579509        -0.736190
 C         2.077973         1.365351        -1.262265
 C         2.862666         0.194977        -0.711642
 H         0.437538        -1.468435         0.059762
 H        -0.757792        -0.163138        -0.115949
 H         0.077670        -0.801844        -1.518151
 H         1.496103         1.341416         1.807385
 H         1.827946        -0.349576         1.772367
 H         4.982943         0.546490         1.217354
 H         3.332766         3.143400         1.081210
 H         4.487901         2.540583         0.033382
 H         1.643128         1.439841        -2.258151
 H         3.439174        -0.485075        -1.375002
