19
Iteration:  2429
 C         0.161994        -0.595851        -0.474146
 C         1.400800         0.268091        -0.272276
 C         1.849636         0.614604         1.170288
 C         3.294668         0.752974         0.608504
 O         4.296773         0.357459         1.435612
 C         3.662753         2.186769         0.234182
 O         2.490890         2.589281        -0.563433
 C         1.970921         1.358736        -1.163011
 C         2.858573         0.156623        -0.759561
 H         0.230959        -1.445814         0.290711
 H        -0.758570        -0.011905        -0.311993
 H         0.131706        -1.022846        -1.534241
 H         1.407694         1.547075         1.605005
 H         1.713504        -0.235624         1.859619
 H         4.068114        -0.596083         1.641191
 H         3.759054         2.833940         1.152314
 H         4.616636         2.170142        -0.285166
 H         1.716422         1.320347        -2.201206
 H         3.496456        -0.515372        -1.361709
