19
Iteration:  2290
 C         0.128935        -0.490397        -0.551840
 C         1.378122         0.221658        -0.176609
 C         1.880004         0.642717         1.191651
 C         3.326454         0.829218         0.698671
 O         4.441173         0.219003         1.411990
 C         3.532415         2.251709         0.279254
 O         2.460044         2.563960        -0.711905
 C         2.020845         1.285946        -1.191176
 C         2.846293         0.133813        -0.656326
 H         0.064268        -1.508127        -0.088269
 H        -0.779416         0.089292        -0.223824
 H         0.160944        -0.517730        -1.731839
 H         1.427326         1.605513         1.525953
 H         1.663611        -0.267495         1.830381
 H         4.071755        -0.455950         2.038665
 H         3.516010         2.981980         1.095897
 H         4.528904         2.430413        -0.210520
 H         1.567086         1.131019        -2.165026
 H         3.387098        -0.426822        -1.459950
